<?xml version="1.0" encoding="UTF-8"?>

<!-- generated on 2025-12-01 18:31:27.361362 by routeSampler.py v1_22_0+0002-63e50f52594
<configuration>
    <route-files value="D:/Cong viec tai VTS/4 Sumo thai nguyen/route_sampler/only_rou.xml"/>
    <edgedata-files value="D:/Cong viec tai VTS/4 Sumo thai nguyen/route_sampler/edgeData.xml"/>
    <output-file value="D:/Cong viec tai VTS/4 Sumo thai nguyen/rou_sampler.rou.xml"/>
    <attributes value="type=&quot;typedist&quot;"/>
</configuration>
-->

<routes xmlns:xsi="http://www.w3.org/2001/XMLSchema-instance" xsi:noNamespaceSchemaLocation="http://sumo.dlr.de/xsd/routes_file.xsd">
<!-- begin="0.0" end="1800.0" -->
    <vehicle id="0" depart="0.01" type="typedist">
        <route edges="gm637922365 yh1221681662#1 gb1221681662#3 yb1221681662#4 y1221681662#5"/>
    </vehicle>
    <vehicle id="1" depart="0.12" type="typedist">
        <route edges="gh1221681662#0.165 yh1221681662#1"/>
    </vehicle>
    <vehicle id="2" depart="0.18" type="typedist">
        <route edges="rh-921144236#1"/>
    </vehicle>
    <vehicle id="3" depart="0.23" type="typedist">
        <route edges="r888793511#0 y1362547077#1"/>
    </vehicle>
    <vehicle id="4" depart="0.32" type="typedist">
        <route edges="ym-343737324#2 ym-343737324#0 yh343737533#4"/>
    </vehicle>
    <vehicle id="5" depart="0.43" type="typedist">
        <route edges="gb1221681667#5 gh-343737533#5 ym-1075130526#1 rb1221681667#3 gb1221681667#4"/>
    </vehicle>
    <vehicle id="6" depart="0.44" type="typedist">
        <route edges="yh2526319540 rb1221681667#0 rb1221681667#3"/>
    </vehicle>
    <vehicle id="7" depart="0.62" type="typedist">
        <route edges="gh343737533#3 yh343737533#4 yh343737533#7 gm746291868#0"/>
    </vehicle>
    <vehicle id="8" depart="0.72" type="typedist">
        <route edges="yh-343737533#13 ym704180166#0 rh-921144236#1 gb1221681667#5 yh343737533#7"/>
    </vehicle>
    <vehicle id="9" depart="1.07" type="typedist">
        <route edges="yh-343737533#9 gb1221681667#7"/>
    </vehicle>
    <vehicle id="10" depart="1.24" type="typedist">
        <route edges="r888793511#0 y1362547077#1"/>
    </vehicle>
    <vehicle id="11" depart="1.47" type="typedist">
        <route edges="rb1221681667#0 rb1221681667#3"/>
    </vehicle>
    <vehicle id="12" depart="1.59" type="typedist">
        <route edges="gh1362547081 rb1221681667#0 rb1221681667#3"/>
    </vehicle>
    <vehicle id="13" depart="1.85" type="typedist">
        <route edges="gh1221681662#0.165 yh1221681662#1 gb1221681662#3"/>
    </vehicle>
    <vehicle id="14" depart="2.23" type="typedist">
        <route edges="rm-746291868#1 yh-343737533#9 gh-343737533#5 gh-343737533#3"/>
    </vehicle>
    <vehicle id="15" depart="2.24" type="typedist">
        <route edges="yh2526319540 y1362547077#1"/>
    </vehicle>
    <vehicle id="16" depart="2.25" type="typedist">
        <route edges="gh1362547081 rb1221681667#0 rb1221681667#3 gb1221681667#4"/>
    </vehicle>
    <vehicle id="17" depart="2.45" type="typedist">
        <route edges="rh-921144236#1"/>
    </vehicle>
    <vehicle id="18" depart="2.51" type="typedist">
        <route edges="rb1221681667#3 gb1221681667#4 gb1221681667#5 gh-343737533#5 gm343737324#0 ym343737324#1 ym-343737324#2 ym-343737324#0"/>
    </vehicle>
    <vehicle id="19" depart="2.64" type="typedist">
        <route edges="rb1221681667#0 rb1221681667#3"/>
    </vehicle>
    <vehicle id="20" depart="2.74" type="typedist">
        <route edges="yh-343737533#13 yh-343737533#9 gh-343737533#5 ym-1075130526#1"/>
    </vehicle>
    <vehicle id="21" depart="2.86" type="typedist">
        <route edges="y-921158505 y1221681662#5 gb746290966#1"/>
    </vehicle>
    <vehicle id="22" depart="3.19" type="typedist">
        <route edges="yh2526319540 y1362547077#1"/>
    </vehicle>
    <vehicle id="23" depart="3.36" type="typedist">
        <route edges="gh1362547081 rb1221681667#0 rb1221681667#3"/>
    </vehicle>
    <vehicle id="24" depart="3.53" type="typedist">
        <route edges="rh-921144236#1"/>
    </vehicle>
    <vehicle id="25" depart="3.70" type="typedist">
        <route edges="yh-343737533#13 yh-343737533#9"/>
    </vehicle>
    <vehicle id="26" depart="3.89" type="typedist">
        <route edges="gh1221681662#0.165 yh1221681662#1"/>
    </vehicle>
    <vehicle id="27" depart="3.91" type="typedist">
        <route edges="yh343737533#4"/>
    </vehicle>
    <vehicle id="28" depart="4.00" type="typedist">
        <route edges="ym1075130526#1 yh343737533#4 yh343737533#7 gh343737533#10 yh-343737533#13 yh-343737533#9"/>
    </vehicle>
    <vehicle id="29" depart="4.06" type="typedist">
        <route edges="gb1221681662#3 yb1221681662#4 y1221681662#5 gh-252631954"/>
    </vehicle>
    <vehicle id="30" depart="4.52" type="typedist">
        <route edges="gh1221681662#0.165 yh1221681662#1"/>
    </vehicle>
    <vehicle id="31" depart="4.74" type="typedist">
        <route edges="gm343737324#0 gm637922365 yh1221681662#1 yh343737533#7 ym704180166#0 rh-921144236#1"/>
    </vehicle>
    <vehicle id="32" depart="4.79" type="typedist">
        <route edges="gh343737533#3 ym-1075130526#1 y1221681662#5 gh-252631954"/>
    </vehicle>
    <vehicle id="33" depart="4.97" type="typedist">
        <route edges="y-921158505 rb1221681667#3 gm-704180166#2 gm-704180166#1 gm746291868#0"/>
    </vehicle>
    <vehicle id="34" depart="5.14" type="typedist">
        <route edges="yh2526319540 y1362547077#1"/>
    </vehicle>
    <vehicle id="35" depart="5.28" type="typedist">
        <route edges="rb1221681667#3"/>
    </vehicle>
    <vehicle id="36" depart="5.34" type="typedist">
        <route edges="yh2526319540 rb1221681667#0 rb1221681667#3"/>
    </vehicle>
    <vehicle id="37" depart="5.41" type="typedist">
        <route edges="gm-637922365 ym343737324#1 ym-343737324#2 gm637922365"/>
    </vehicle>
    <vehicle id="38" depart="5.46" type="typedist">
        <route edges="yh1221681662#1"/>
    </vehicle>
    <vehicle id="39" depart="5.58" type="typedist">
        <route edges="rm-746291868#1 yh-343737533#9 gb1221681667#7"/>
    </vehicle>
    <vehicle id="40" depart="5.60" type="typedist">
        <route edges="gh1362547081 rb1221681667#0 rb1221681667#3 gb1221681667#4 gb1221681667#5"/>
    </vehicle>
    <vehicle id="41" depart="5.78" type="typedist">
        <route edges="yb1221681662#4 ym1075130526#1 yh343737533#4 yh343737533#7 gh343737533#10"/>
    </vehicle>
    <vehicle id="42" depart="5.89" type="typedist">
        <route edges="y1221681662#5"/>
    </vehicle>
    <vehicle id="43" depart="5.91" type="typedist">
        <route edges="y1221681662#5 gh-252631954 yh2526319540 rb1221681667#0 rb1221681667#3"/>
    </vehicle>
    <vehicle id="44" depart="6.05" type="typedist">
        <route edges="gh343737533#3 ym-1075130526#1 rb1221681667#3 gm-704180166#2 gm-704180166#1"/>
    </vehicle>
    <vehicle id="45" depart="6.11" type="typedist">
        <route edges="rm-746291868#1 ym704180166#0 rh-921144236#1 yb1221681662#4 y1221681662#5 gb746290966#1"/>
    </vehicle>
    <vehicle id="46" depart="6.30" type="typedist">
        <route edges="yh2526319540 rb1221681667#0 rb1221681667#3"/>
    </vehicle>
    <vehicle id="47" depart="6.31" type="typedist">
        <route edges="r888793511#0 y1362547077#1"/>
    </vehicle>
    <vehicle id="48" depart="6.42" type="typedist">
        <route edges="yb1221681662#4 ym1075130526#1 gm343737324#0 gm637922365 yh1221681662#1 gb1221681662#3"/>
    </vehicle>
    <vehicle id="49" depart="7.34" type="typedist">
        <route edges="gb1221681662#3"/>
    </vehicle>
    <vehicle id="50" depart="7.40" type="typedist">
        <route edges="r888793511#0 y1362547077#1"/>
    </vehicle>
    <vehicle id="51" depart="7.70" type="typedist">
        <route edges="r888793511#0 y1362547077#1"/>
    </vehicle>
    <vehicle id="52" depart="7.80" type="typedist">
        <route edges="gm343737324#0 ym343737324#1 ym-343737324#2 ym-343737324#0 ym-1075130526#1"/>
    </vehicle>
    <vehicle id="53" depart="7.82" type="typedist">
        <route edges="gh1362547081 gb746290966#1"/>
    </vehicle>
    <vehicle id="54" depart="7.94" type="typedist">
        <route edges="gh343737533#3 yh343737533#4 yh343737533#7 gm746291868#0"/>
    </vehicle>
    <vehicle id="55" depart="8.26" type="typedist">
        <route edges="gh1362547081 rb1221681667#0 rb1221681667#3 gb1221681667#4 gb1221681667#5 yh343737533#7"/>
    </vehicle>
    <vehicle id="56" depart="8.30" type="typedist">
        <route edges="r888793511#0 rb1221681667#0 rb1221681667#3"/>
    </vehicle>
    <vehicle id="57" depart="8.38" type="typedist">
        <route edges="yh-343737533#9 gh-343737533#5 gm343737324#0 ym343737324#1 ym-343737324#2 ym-343737324#0 yh343737533#4"/>
    </vehicle>
    <vehicle id="58" depart="8.92" type="typedist">
        <route edges="rh-921144236#1 yb1221681662#4 y1221681662#5 y1362547077#1"/>
    </vehicle>
    <vehicle id="59" depart="9.16" type="typedist">
        <route edges="yh2526319540 rb1221681667#0 rb1221681667#3 gb1221681667#4"/>
    </vehicle>
    <vehicle id="60" depart="9.61" type="typedist">
        <route edges="r888793511#0 rb1221681667#0 y921160679"/>
    </vehicle>
    <vehicle id="61" depart="9.62" type="typedist">
        <route edges="yh1221681662#1 yh343737533#7"/>
    </vehicle>
    <vehicle id="62" depart="9.63" type="typedist">
        <route edges="rh-921144236#1 yb1221681662#4 y1221681662#5 gb746290966#1"/>
    </vehicle>
    <vehicle id="63" depart="9.83" type="typedist">
        <route edges="yh2526319540 rb1221681667#0 rb1221681667#3"/>
    </vehicle>
    <vehicle id="64" depart="9.94" type="typedist">
        <route edges="rh-921144236#1"/>
    </vehicle>
    <vehicle id="65" depart="10.02" type="typedist">
        <route edges="gb1221681662#3 yb1221681662#4 y921160679 y-921158505 rb1221681667#3 gm-704180166#2 gm-704180166#1"/>
    </vehicle>
    <vehicle id="66" depart="10.05" type="typedist">
        <route edges="rb1221681667#3"/>
    </vehicle>
    <vehicle id="67" depart="10.12" type="typedist">
        <route edges="y-921158505 y1221681662#5 y1362547077#1"/>
    </vehicle>
    <vehicle id="68" depart="10.22" type="typedist">
        <route edges="gh1221681662#0.165 yh1221681662#1 gb1221681662#3 yb1221681662#4 y1221681662#5"/>
    </vehicle>
    <vehicle id="69" depart="10.48" type="typedist">
        <route edges="rb1221681667#0 rb1221681667#3"/>
    </vehicle>
    <vehicle id="70" depart="10.51" type="typedist">
        <route edges="yh2526319540 gb746290966#1"/>
    </vehicle>
    <vehicle id="71" depart="10.65" type="typedist">
        <route edges="rm-746291868#1 yh-343737533#9 gb1221681667#7"/>
    </vehicle>
    <vehicle id="72" depart="10.75" type="typedist">
        <route edges="r888793511#0 rb1221681667#0 rb1221681667#3"/>
    </vehicle>
    <vehicle id="73" depart="10.81" type="typedist">
        <route edges="gh1221681662#0.165 yh1221681662#1"/>
    </vehicle>
    <vehicle id="74" depart="10.97" type="typedist">
        <route edges="ym-343737324#2 ym-343737324#0 yh343737533#4"/>
    </vehicle>
    <vehicle id="75" depart="10.98" type="typedist">
        <route edges="gm343737324#0 ym343737324#1 ym-343737324#2 ym-343737324#0 ym-1075130526#1"/>
    </vehicle>
    <vehicle id="76" depart="11.38" type="typedist">
        <route edges="yh1221681662#1"/>
    </vehicle>
    <vehicle id="77" depart="11.52" type="typedist">
        <route edges="r888793511#0 y1362547077#1"/>
    </vehicle>
    <vehicle id="78" depart="11.71" type="typedist">
        <route edges="y-921158505 ym1075130526#1 gm343737324#0 gm637922365 yh1221681662#1"/>
    </vehicle>
    <vehicle id="79" depart="11.76" type="typedist">
        <route edges="yh2526319540 rb1221681667#0 rb1221681667#3 gb1221681667#4 gb1221681667#5 yh343737533#7 ym704180166#0 rh-921144236#1"/>
    </vehicle>
    <vehicle id="80" depart="11.86" type="typedist">
        <route edges="r888793511#0 y1362547077#1"/>
    </vehicle>
    <vehicle id="81" depart="12.13" type="typedist">
        <route edges="rh-921144236#1"/>
    </vehicle>
    <vehicle id="82" depart="12.23" type="typedist">
        <route edges="yh1221681662#1 gb1221681662#3 yb1221681662#4 y1221681662#5 gb746290966#1"/>
    </vehicle>
    <vehicle id="83" depart="12.23" type="typedist">
        <route edges="gh1362547081 rb1221681667#0 ym1075130526#1 gm343737324#0 gm637922365 yh1221681662#1"/>
    </vehicle>
    <vehicle id="84" depart="12.44" type="typedist">
        <route edges="rb1221681667#3"/>
    </vehicle>
    <vehicle id="85" depart="12.56" type="typedist">
        <route edges="gh1221681662#0.165 yh1221681662#1 gb1221681662#3 yb1221681662#4 y1221681662#5"/>
    </vehicle>
    <vehicle id="86" depart="12.59" type="typedist">
        <route edges="gm343737324#0 ym343737324#1 ym-343737324#2 ym-343737324#0 ym-1075130526#1 rb1221681667#3 gb1221681667#4"/>
    </vehicle>
    <vehicle id="87" depart="12.62" type="typedist">
        <route edges="yh-343737533#13 yh-343737533#9 gh-343737533#5 gm343737324#0 ym343737324#1 ym-343737324#2 ym-343737324#0"/>
    </vehicle>
    <vehicle id="88" depart="12.68" type="typedist">
        <route edges="rh-921144236#1 yb1221681662#4 ym1075130526#1"/>
    </vehicle>
    <vehicle id="89" depart="12.73" type="typedist">
        <route edges="yh1221681662#1 gb1221681662#3 yb1221681662#4 y1221681662#5 y1362547077#1"/>
    </vehicle>
    <vehicle id="90" depart="12.79" type="typedist">
        <route edges="gb1221681662#3 yb1221681662#4 y1221681662#5 y1362547077#1"/>
    </vehicle>
    <vehicle id="91" depart="12.83" type="typedist">
        <route edges="rb1221681667#3"/>
    </vehicle>
    <vehicle id="92" depart="13.10" type="typedist">
        <route edges="gh1221681662#0.165 yh1221681662#1 gb1221681662#3 yb1221681662#4 y921160679"/>
    </vehicle>
    <vehicle id="93" depart="13.21" type="typedist">
        <route edges="gm-704180166#1 yh-343737533#9 gh-343737533#5 gh-343737533#3"/>
    </vehicle>
    <vehicle id="94" depart="13.34" type="typedist">
        <route edges="yh-343737533#13 yh-343737533#9"/>
    </vehicle>
    <vehicle id="95" depart="13.62" type="typedist">
        <route edges="gh343737533#3 yh343737533#4"/>
    </vehicle>
    <vehicle id="96" depart="13.81" type="typedist">
        <route edges="yh-343737533#13 yh-343737533#9"/>
    </vehicle>
    <vehicle id="97" depart="13.96" type="typedist">
        <route edges="gh1362547081 rb1221681667#0 rb1221681667#3 gb1221681667#4 gb1221681667#5 yh343737533#7"/>
    </vehicle>
    <vehicle id="98" depart="14.33" type="typedist">
        <route edges="gh1221681662#0.165 yh1221681662#1"/>
    </vehicle>
    <vehicle id="99" depart="14.53" type="typedist">
        <route edges="yh-343737533#13 yh-343737533#9"/>
    </vehicle>
    <vehicle id="100" depart="14.76" type="typedist">
        <route edges="rb1221681667#0 rb1221681667#3 gm-704180166#2"/>
    </vehicle>
    <vehicle id="101" depart="14.84" type="typedist">
        <route edges="y1221681662#5 gh-252631954 yh2526319540 rb1221681667#0 ym1075130526#1 gm343737324#0 ym343737324#1 ym-343737324#2 ym-343737324#0"/>
    </vehicle>
    <vehicle id="102" depart="15.07" type="typedist">
        <route edges="rh-921144236#1 yb1221681662#4 y1221681662#5 y1362547077#1"/>
    </vehicle>
    <vehicle id="103" depart="15.11" type="typedist">
        <route edges="yh2526319540 rb1221681667#0 rb1221681667#3"/>
    </vehicle>
    <vehicle id="104" depart="15.12" type="typedist">
        <route edges="rb1221681667#3"/>
    </vehicle>
    <vehicle id="105" depart="15.14" type="typedist">
        <route edges="rm-746291868#1 gh343737533#10"/>
    </vehicle>
    <vehicle id="106" depart="15.26" type="typedist">
        <route edges="yh1221681662#1"/>
    </vehicle>
    <vehicle id="107" depart="15.31" type="typedist">
        <route edges="rh-921144236#1"/>
    </vehicle>
    <vehicle id="108" depart="15.51" type="typedist">
        <route edges="yh1221681662#1"/>
    </vehicle>
    <vehicle id="109" depart="15.54" type="typedist">
        <route edges="gm-637922365 ym-343737324#0 ym-1075130526#1 y921160679"/>
    </vehicle>
    <vehicle id="110" depart="15.56" type="typedist">
        <route edges="gh1362547081 rb1221681667#0 rb1221681667#3"/>
    </vehicle>
    <vehicle id="111" depart="15.86" type="typedist">
        <route edges="ym-343737324#2 ym-343737324#0 yh343737533#4"/>
    </vehicle>
    <vehicle id="112" depart="15.89" type="typedist">
        <route edges="rh-921144236#1 yb1221681662#4 y1221681662#5 y1362547077#1"/>
    </vehicle>
    <vehicle id="113" depart="16.09" type="typedist">
        <route edges="y1221681662#5 gh-252631954 yh2526319540 rb1221681667#0 rb1221681667#3 gb1221681667#4 gb1221681667#5 gb1221681667#7"/>
    </vehicle>
    <vehicle id="114" depart="16.14" type="typedist">
        <route edges="y-921158505 ym1075130526#1 gm343737324#0 gm637922365 yh1221681662#1"/>
    </vehicle>
    <vehicle id="115" depart="16.20" type="typedist">
        <route edges="r888793511#0 y1362547077#1"/>
    </vehicle>
    <vehicle id="116" depart="16.47" type="typedist">
        <route edges="gh1221681662#0.165 yh1221681662#1"/>
    </vehicle>
    <vehicle id="117" depart="16.60" type="typedist">
        <route edges="rb1221681667#3 gb1221681667#4"/>
    </vehicle>
    <vehicle id="118" depart="16.68" type="typedist">
        <route edges="yh2526319540 rb1221681667#0 y921160679 y-921158505 y1221681662#5"/>
    </vehicle>
    <vehicle id="119" depart="16.83" type="typedist">
        <route edges="gh1362547081 gb746290966#1"/>
    </vehicle>
    <vehicle id="120" depart="17.07" type="typedist">
        <route edges="gh1221681662#0.165 yh1221681662#1"/>
    </vehicle>
    <vehicle id="121" depart="17.14" type="typedist">
        <route edges="gm-704180166#1 gh343737533#10 yh-343737533#13 ym704180166#0 rh-921144236#1 yb1221681662#4 ym1075130526#1"/>
    </vehicle>
    <vehicle id="122" depart="17.24" type="typedist">
        <route edges="r888793511#0 gh-252631954 yh2526319540 gb746290966#1"/>
    </vehicle>
    <vehicle id="123" depart="17.43" type="typedist">
        <route edges="rh-921144236#1 gb1221681667#5 yh343737533#7 gm746291868#0"/>
    </vehicle>
    <vehicle id="124" depart="17.62" type="typedist">
        <route edges="y-921158505 rb1221681667#3 gb1221681667#4 gb1221681667#5 gh-343737533#5 ym-1075130526#1"/>
    </vehicle>
    <vehicle id="125" depart="17.66" type="typedist">
        <route edges="gm-637922365 ym343737324#1"/>
    </vehicle>
    <vehicle id="126" depart="18.11" type="typedist">
        <route edges="gh1221681662#0.165 yh1221681662#1 gb1221681662#3 yb1221681662#4"/>
    </vehicle>
    <vehicle id="127" depart="18.31" type="typedist">
        <route edges="gh1362547081 rb1221681667#0 rb1221681667#3 gb1221681667#4 gb1221681667#5 gb1221681667#7"/>
    </vehicle>
    <vehicle id="128" depart="18.43" type="typedist">
        <route edges="rh-921144236#1 yb1221681662#4 y1221681662#5 gh-252631954"/>
    </vehicle>
    <vehicle id="129" depart="18.46" type="typedist">
        <route edges="gh1221681662#0.165 gm-637922365"/>
    </vehicle>
    <vehicle id="130" depart="18.65" type="typedist">
        <route edges="rb1221681667#3"/>
    </vehicle>
    <vehicle id="131" depart="18.71" type="typedist">
        <route edges="r888793511#0 rb1221681667#0 rb1221681667#3"/>
    </vehicle>
    <vehicle id="132" depart="18.72" type="typedist">
        <route edges="ym-343737324#2 ym-343737324#0 yh343737533#4"/>
    </vehicle>
    <vehicle id="133" depart="18.75" type="typedist">
        <route edges="rb1221681667#3 gb1221681667#4 gb1221681667#5 yh343737533#7 ym704180166#0 rh-921144236#1 yb1221681662#4"/>
    </vehicle>
    <vehicle id="134" depart="19.11" type="typedist">
        <route edges="rh-921144236#1 yb1221681662#4 y1221681662#5 y1362547077#1"/>
    </vehicle>
    <vehicle id="135" depart="19.42" type="typedist">
        <route edges="ym-343737324#0 gh-343737533#3"/>
    </vehicle>
    <vehicle id="136" depart="19.49" type="typedist">
        <route edges="yh2526319540 gb746290966#1"/>
    </vehicle>
    <vehicle id="137" depart="19.67" type="typedist">
        <route edges="rm-746291868#1 yh-343737533#9 gb1221681667#7"/>
    </vehicle>
    <vehicle id="138" depart="19.79" type="typedist">
        <route edges="yh2526319540 y1362547077#1"/>
    </vehicle>
    <vehicle id="139" depart="20.05" type="typedist">
        <route edges="yh-343737533#13 yh-343737533#9"/>
    </vehicle>
    <vehicle id="140" depart="20.18" type="typedist">
        <route edges="gb1221681662#3 yb1221681662#4 y921160679 y-921158505 rb1221681667#3 gb1221681667#4 gb1221681667#5 gh-343737533#5 ym-1075130526#1"/>
    </vehicle>
    <vehicle id="141" depart="20.25" type="typedist">
        <route edges="yh1221681662#1"/>
    </vehicle>
    <vehicle id="142" depart="20.36" type="typedist">
        <route edges="yh1221681662#1"/>
    </vehicle>
    <vehicle id="143" depart="20.75" type="typedist">
        <route edges="gh1221681662#0.165 yh1221681662#1"/>
    </vehicle>
    <vehicle id="144" depart="20.83" type="typedist">
        <route edges="yh343737533#4"/>
    </vehicle>
    <vehicle id="145" depart="21.27" type="typedist">
        <route edges="rb1221681667#3"/>
    </vehicle>
    <vehicle id="146" depart="21.53" type="typedist">
        <route edges="rh-921144236#1"/>
    </vehicle>
    <vehicle id="147" depart="21.59" type="typedist">
        <route edges="rm-746291868#1 gh343737533#10"/>
    </vehicle>
    <vehicle id="148" depart="21.61" type="typedist">
        <route edges="rh-921144236#1"/>
    </vehicle>
    <vehicle id="149" depart="21.64" type="typedist">
        <route edges="y1221681662#5 gh-252631954 yh2526319540 rb1221681667#0 rb1221681667#3 gb1221681667#4 gb1221681667#5"/>
    </vehicle>
    <vehicle id="150" depart="21.69" type="typedist">
        <route edges="ym-343737324#0 yh343737533#4 yh343737533#7 gm746291868#0"/>
    </vehicle>
    <vehicle id="151" depart="21.75" type="typedist">
        <route edges="yh2526319540 rb1221681667#0 rb1221681667#3"/>
    </vehicle>
    <vehicle id="152" depart="21.77" type="typedist">
        <route edges="rb1221681667#3 gb1221681667#4 gb1221681667#5 gh-343737533#5"/>
    </vehicle>
    <vehicle id="153" depart="21.89" type="typedist">
        <route edges="gh343737533#3 yh343737533#4"/>
    </vehicle>
    <vehicle id="154" depart="22.01" type="typedist">
        <route edges="rh-921144236#1"/>
    </vehicle>
    <vehicle id="155" depart="22.02" type="typedist">
        <route edges="yh-343737533#13 yh-343737533#9 gh-343737533#5 ym-1075130526#1 rb1221681667#3 gb1221681667#4"/>
    </vehicle>
    <vehicle id="156" depart="22.27" type="typedist">
        <route edges="gm637922365 yh1221681662#1 yh343737533#7 gm746291868#0"/>
    </vehicle>
    <vehicle id="157" depart="22.43" type="typedist">
        <route edges="gh1221681662#0.165 yh1221681662#1 gb1221681662#3 yb1221681662#4 y1221681662#5 y1362547077#1"/>
    </vehicle>
    <vehicle id="158" depart="22.65" type="typedist">
        <route edges="y-921158505 y1221681662#5 y1362547077#1"/>
    </vehicle>
    <vehicle id="159" depart="22.78" type="typedist">
        <route edges="rm-746291868#1 yh-343737533#9 gh-343737533#5 ym-1075130526#1 rb1221681667#3 gb1221681667#4"/>
    </vehicle>
    <vehicle id="160" depart="22.82" type="typedist">
        <route edges="gh1221681662#0.165 yh1221681662#1 gb1221681662#3 yb1221681662#4 ym1075130526#1"/>
    </vehicle>
    <vehicle id="161" depart="22.82" type="typedist">
        <route edges="gm343737324#0 ym343737324#1 ym-343737324#2 ym-343737324#0 ym-1075130526#1 rb1221681667#3"/>
    </vehicle>
    <vehicle id="162" depart="23.05" type="typedist">
        <route edges="yh2526319540 rb1221681667#0 rb1221681667#3 gb1221681667#4 gb1221681667#5 yh343737533#7 ym704180166#0"/>
    </vehicle>
    <vehicle id="163" depart="23.53" type="typedist">
        <route edges="y-921158505 rb1221681667#3 gb1221681667#4"/>
    </vehicle>
    <vehicle id="164" depart="23.55" type="typedist">
        <route edges="gh1362547081 rb1221681667#0 rb1221681667#3 gb1221681667#4 gb1221681667#5 gb1221681667#7"/>
    </vehicle>
    <vehicle id="165" depart="23.57" type="typedist">
        <route edges="gm-637922365 ym-343737324#0 gh-343737533#3"/>
    </vehicle>
    <vehicle id="166" depart="23.82" type="typedist">
        <route edges="yh2526319540 rb1221681667#0 rb1221681667#3 gb1221681667#4 gb1221681667#5 gb1221681667#7"/>
    </vehicle>
    <vehicle id="167" depart="23.96" type="typedist">
        <route edges="r888793511#0 y1362547077#1"/>
    </vehicle>
    <vehicle id="168" depart="24.08" type="typedist">
        <route edges="gh1362547081 rb1221681667#0 rb1221681667#3 gb1221681667#4 gb1221681667#5 yh343737533#7 ym704180166#0 rh-921144236#1"/>
    </vehicle>
    <vehicle id="169" depart="24.23" type="typedist">
        <route edges="gh1221681662#0.165 yh1221681662#1 yh343737533#7 gh343737533#10 yh-343737533#13 yh-343737533#9"/>
    </vehicle>
    <vehicle id="170" depart="24.80" type="typedist">
        <route edges="gh1221681662#0.165 yh1221681662#1"/>
    </vehicle>
    <vehicle id="171" depart="24.82" type="typedist">
        <route edges="gm343737324#0 gm637922365 yh1221681662#1 gb1221681662#3 yb1221681662#4 y1221681662#5 gb746290966#1"/>
    </vehicle>
    <vehicle id="172" depart="24.93" type="typedist">
        <route edges="r888793511#0 rb1221681667#0 rb1221681667#3"/>
    </vehicle>
    <vehicle id="173" depart="24.99" type="typedist">
        <route edges="y-921158505 ym1075130526#1"/>
    </vehicle>
    <vehicle id="174" depart="25.00" type="typedist">
        <route edges="gh343737533#3 yh343737533#4"/>
    </vehicle>
    <vehicle id="175" depart="25.09" type="typedist">
        <route edges="r888793511#0 y1362547077#1"/>
    </vehicle>
    <vehicle id="176" depart="25.18" type="typedist">
        <route edges="yh1221681662#1"/>
    </vehicle>
    <vehicle id="177" depart="25.34" type="typedist">
        <route edges="gh343737533#3 yh343737533#4"/>
    </vehicle>
    <vehicle id="178" depart="25.51" type="typedist">
        <route edges="ym1075130526#1 yh343737533#4 yh343737533#7 ym704180166#0 rh-921144236#1 yb1221681662#4 y921160679"/>
    </vehicle>
    <vehicle id="179" depart="25.61" type="typedist">
        <route edges="gh1362547081 rb1221681667#0 rb1221681667#3 gb1221681667#4"/>
    </vehicle>
    <vehicle id="180" depart="25.92" type="typedist">
        <route edges="yh1221681662#1"/>
    </vehicle>
    <vehicle id="181" depart="26.04" type="typedist">
        <route edges="yh343737533#4 yh343737533#7 ym704180166#0 rh-921144236#1 yb1221681662#4 y1221681662#5"/>
    </vehicle>
    <vehicle id="182" depart="26.08" type="typedist">
        <route edges="gb1221681662#3 yb1221681662#4 y1221681662#5 y1362547077#1"/>
    </vehicle>
    <vehicle id="183" depart="26.10" type="typedist">
        <route edges="r888793511#0 rb1221681667#0"/>
    </vehicle>
    <vehicle id="184" depart="26.34" type="typedist">
        <route edges="rh-921144236#1 yb1221681662#4 y1221681662#5 gh-252631954 yh2526319540 rb1221681667#0"/>
    </vehicle>
    <vehicle id="185" depart="26.37" type="typedist">
        <route edges="yb1221681662#4 y921160679 y-921158505 rb1221681667#3 gb1221681667#4 gb1221681667#5 gb1221681667#7"/>
    </vehicle>
    <vehicle id="186" depart="26.66" type="typedist">
        <route edges="rb1221681667#3"/>
    </vehicle>
    <vehicle id="187" depart="26.66" type="typedist">
        <route edges="rh-921144236#1"/>
    </vehicle>
    <vehicle id="188" depart="26.84" type="typedist">
        <route edges="yh1221681662#1"/>
    </vehicle>
    <vehicle id="189" depart="27.06" type="typedist">
        <route edges="yh2526319540 rb1221681667#0 rb1221681667#3 gb1221681667#4 gb1221681667#5 gb1221681667#7"/>
    </vehicle>
    <vehicle id="190" depart="27.47" type="typedist">
        <route edges="rb1221681667#0 y921160679 y-921158505 y1221681662#5"/>
    </vehicle>
    <vehicle id="191" depart="27.53" type="typedist">
        <route edges="gh1221681662#0.165 yh1221681662#1"/>
    </vehicle>
    <vehicle id="192" depart="27.61" type="typedist">
        <route edges="gh1221681662#0.165 yh1221681662#1 gb1221681662#3 yb1221681662#4 y1221681662#5 gb746290966#1"/>
    </vehicle>
    <vehicle id="193" depart="27.62" type="typedist">
        <route edges="rh-921144236#1"/>
    </vehicle>
    <vehicle id="194" depart="27.63" type="typedist">
        <route edges="gm-704180166#1 gh343737533#10 yh-343737533#13 ym704180166#0 rh-921144236#1 gb1221681667#5 yh343737533#7"/>
    </vehicle>
    <vehicle id="195" depart="27.73" type="typedist">
        <route edges="gh1221681662#0.165 yh1221681662#1"/>
    </vehicle>
    <vehicle id="196" depart="28.50" type="typedist">
        <route edges="gh1362547081 rb1221681667#0 y921160679 y-921158505 y1221681662#5"/>
    </vehicle>
    <vehicle id="197" depart="28.50" type="typedist">
        <route edges="ym1075130526#1 yh343737533#4 yh343737533#7 ym704180166#0 rh-921144236#1 yb1221681662#4 y1221681662#5 gh-252631954"/>
    </vehicle>
    <vehicle id="198" depart="28.56" type="typedist">
        <route edges="y1221681662#5 gh-252631954 yh2526319540 rb1221681667#0 rb1221681667#3 gb1221681667#4 gb1221681667#5 yh343737533#7"/>
    </vehicle>
    <vehicle id="199" depart="28.76" type="typedist">
        <route edges="gb1221681667#5 yh343737533#7 ym704180166#0 rh-921144236#1 yb1221681662#4 y1221681662#5 gb746290966#1"/>
    </vehicle>
    <vehicle id="200" depart="28.79" type="typedist">
        <route edges="rm-746291868#1 yh-343737533#9 gb1221681667#7"/>
    </vehicle>
    <vehicle id="201" depart="28.86" type="typedist">
        <route edges="yb1221681662#4 ym1075130526#1 yh343737533#4 yh343737533#7"/>
    </vehicle>
    <vehicle id="202" depart="29.01" type="typedist">
        <route edges="yh1221681662#1"/>
    </vehicle>