<?xml version="1.0" encoding="UTF-8"?>

<!-- generated on 2026-03-31 13:26:42.816425 by Eclipse SUMO randomTrips.py v1_25_0+0000-ac6c5a6752d
<configuration>
    <net-file value="zurich.net.xml"/>
    <output-trip-file value="zurich-demo.rou.xml"/>
    <trip-attributes value="type=&quot;td_0&quot; departLane=&quot;best&quot; departSpeed=&quot;max&quot; departPos=&quot;random&quot;"/>
    <lanes value="True"/>
    <seed value="123"/>
    <insertion-rate value="2000.0 12000.0 3000.0 15000.0 4000.0 13000.0 2000.0"/>
    <random-depart value="True"/>
</configuration>
-->

<!-- generated on 2026-03-31T13:26:41.632815+07:00 by Eclipse SUMO duarouter 1.25.0
<duarouterConfiguration xmlns:xsi="http://www.w3.org/2001/XMLSchema-instance" xsi:noNamespaceSchemaLocation="http://sumo.dlr.de/xsd/duarouterConfiguration.xsd">

    <input>
        <net-file value="zurich.net.xml"/>
        <route-files value="zurich-demo.rou.xml"/>
    </input>

    <output>
        <output-file value="routes.rou.xml"/>
        <alternatives-output value="NUL"/>
    </output>

    <time>
        <begin value="0.0"/>
        <end value="3600.0"/>
    </time>

    <report>
        <no-warnings value="true"/>
        <ignore-errors value="true"/>
        <no-step-log value="true"/>
    </report>

</duarouterConfiguration>
-->

<routes xmlns:xsi="http://www.w3.org/2001/XMLSchema-instance" xsi:noNamespaceSchemaLocation="http://sumo.dlr.de/xsd/routes_file.xsd">
    <vehicle id="0" type="td_0" depart="1.60" departLane="best" departPos="random" departSpeed="max">
        <route edges="28420432#0 -83115253#0.15 4558441#0 284686649#1 284686653#1 284686653#2 -75470557#1 -4440329 603349776 842455631 15675745#0 -860373106#1 -860373106#10 -860373106#0 28128254#1 208143937#1 861311402#2"/>
    </vehicle>
    <vehicle id="1" type="td_0" depart="3.40" departLane="best" departPos="random" departSpeed="max">
        <route edges="26645212#4 -26645212#4 -26645212#2 -26645212#1 4803456#1 4803456#5 81552990#3 -683609958#1 -374533048 -371342811#1 4803465#1 1365026910#2 1213415600#0 -4803511#4"/>
    </vehicle>
    <vehicle id="2" type="td_0" depart="6.00" departLane="best" departPos="random" departSpeed="max">
        <route edges="298904469#2 1384314608#1 596514115#1 1011249147#0 546792884#1 -4558440#8 -4558440#4 -4558440#0 4592656#3 546792881#0 546792880#1 26645917#0"/>
    </vehicle>
    <vehicle id="3" type="td_0" depart="12.40" departLane="best" departPos="random" departSpeed="max">
        <route edges="-81552976#0 81552976#0 4803465#1 -29116100#9 -29116100#6 -29116100#4 -29116100#2 -313465298#1 -1384314608#1 -298904469#2 4558438#1 75470554#1"/>
    </vehicle>
    <vehicle id="4" type="td_0" depart="13.20" departLane="best" departPos="random" departSpeed="max">
        <route edges="30640436#1 -E3 32928276 27434049 39013715#1 82956882.11 147161801 284686657 147161798#0 70748311#1 330403834 179097891#0 147161802 -49872902 1279201427#0"/>
    </vehicle>
    <vehicle id="5" type="td_0" depart="14.20" departLane="best" departPos="random" departSpeed="max">
        <route edges="6275382#7 28682845#1 28682845#4 28682845#6 1139084789#1 1139084789#4 -26646344#0 4803456#1 4803456#5 81552990#3 -683609958#1 -374533048 -371342811#1 4803465#1"/>
    </vehicle>
    <vehicle id="6" type="td_0" depart="15.80" departLane="best" departPos="random" departSpeed="max">
        <route edges="83115254#1 4558441#0 284686649#1 207098749#2 1384314607#1 -1384314608#1 -298904469#2 -298904469#0 56081883#0 56081883#1 -15675745#0 -842455631"/>
    </vehicle>
    <vehicle id="7" type="td_0" depart="18.00" departLane="best" departPos="random" departSpeed="max">
        <route edges="15675937#0 548529066#0 526016643#1 526016662#0 526016640#1 -11917063#2 -1089407128#3 1122939439#3 1122939439#4 -298904471#1 298904469#2 1384314608#1 313465298#1 29116100#2 29116100#4 -4803512#3"/>
    </vehicle>
    <vehicle id="8" type="td_0" depart="21.00" departLane="best" departPos="random" departSpeed="max">
        <route edges="4730718#0 1007827874#1 147164232#0 284686654 -1324070803 -596514086#6 -596514086#3 4803465#1 -29116100#9 -29116100#6 -29116100#4 -29116100#2 -313465298#1 -1384314608#1 -298904469#2 -298904469#0 56081883#0 56081883#1 1089407128#3 11917063#0 526016660#0 548529066#0"/>
    </vehicle>
    <vehicle id="9" type="td_0" depart="23.80" departLane="best" departPos="random" departSpeed="max">
        <route edges="4533225#6 4743764#2 527458585#1.18 1169825565 1169825567 1169825566#10 1169825568 1111971585#2 1111971585#5 821304189#0 536842076#1 28630236#00 536841066 526016662#0 526016649 4730408#3 4572091.56"/>
    </vehicle>
    <vehicle id="10" type="td_0" depart="26.00" departLane="best" departPos="random" departSpeed="max">
        <route edges="-28682845#4 -28682845#1 -28682845#0 -1211302819#0 -1209522756 -29116101#3 -29116101#2 -313465298#1 -1384314608#1 5772447#1 5772447#2 5944787#1 E5 30640436#0 967647587#1 70748300 -1303164756#1 70748320#1"/>
    </vehicle>
    <vehicle id="11" type="td_0" depart="26.80" departLane="best" departPos="random" departSpeed="max">
        <route edges="-298904469#2 4558438#1 75470554#1 4533224#9 5772447#1 5772447#2 284686652#2 284686647#1 547047277#1 547047277#4 284686651#1 547047229#0 35424540 -179097891#0 -330403834 -70748311#1 -147161798#0 13863761#3 550658812#1 550658815#1 -24586239#1 -1037128393#2 45042940"/>
    </vehicle>
    <vehicle id="12" type="td_0" depart="28.00" departLane="best" departPos="random" departSpeed="max">
        <route edges="4803405#0 -81552989#4 -81552989#1 -29116100#2 -596514114#1 -596514114#0 -791130340#1 -83115253#1 -83115253#0.15 4558441#0 547047277#1 547047277#4 284686651#1 547047229#0 35424540 -179097891#0 -330403834 -70748311#1 -147161798#0 -1346229232 -147161801 -82956882 -39013715#1"/>
    </vehicle>
    <vehicle id="13" type="td_0" depart="32.40" departLane="best" departPos="random" departSpeed="max">
        <route edges="27014785#0 526016653#3 526016651 526016640#1 -11917063#2 -1089407128#3 1122939439#3 1122939439#4 -298904471#1 298904469#2 1384314608#1 313465298#1 29116100#2 29116100#4 29116100#6 -43566484#7 -521669302#0"/>
    </vehicle>
    <vehicle id="14" type="td_0" depart="32.80" departLane="best" departPos="random" departSpeed="max">
        <route edges="81552996#0 -28682845#4 -28682845#1 -28682845#0 -1211302819#0 -1209522756 -29116101#3 -29116101#2 29116100#2 29116100#4 29116100#6 -43566484#7 -43566484#3"/>
    </vehicle>
    <vehicle id="15" type="td_0" depart="37.20" departLane="best" departPos="random" departSpeed="max">
        <route edges="967647590#1 208143935#1 -E3 27433890#0.6 27433890#3 -27433876#1 -547047277#4 -547047277#2 284686649#1 207098749#2"/>
    </vehicle>
    <vehicle id="16" type="td_0" depart="38.00" departLane="best" departPos="random" departSpeed="max">
        <route edges="-1011249147#1 -1011249147#0 -596514115#1 -1384314608#1 -298904469#2"/>
    </vehicle>
    <vehicle id="17" type="td_0" depart="42.60" departLane="best" departPos="random" departSpeed="max">
        <route edges="-860373106#0 860373106#0 860373106#1 860373106#1.9 -15675745#0 -842455631 -603349777#1 4440329.21 75470557#1 284686652#2 284686647#1 547047277#1 547047277#4 284686651#1 -44906779#6 5944790#1 5944790#3 43566486#0"/>
    </vehicle>
    <vehicle id="18" type="td_0" depart="48.80" departLane="best" departPos="random" departSpeed="max">
        <route edges="313465298#1 29116100#2 81552989#1 81552989#4 536841067#0 6275379#1 26645783#1 -4803427#1"/>
    </vehicle>
    <vehicle id="19" type="td_0" depart="49.00" departLane="best" departPos="random" departSpeed="max">
        <route edges="1213415600#0 26646994#1.11 26646994#2 -596514086#3 4803465#1 -29116100#9 -29116100#6 -29116100#4 -29116100#2 -313465298#1 -1384314608#1 -298904469#2 -298904469#0 56081883#0 56081883#1 -860373106#1 -860373106#10 -861311402#5 -1324076749#0 -1324076750#2 55455547#2"/>
    </vehicle>
    <vehicle id="20" type="td_0" depart="49.20" departLane="best" departPos="random" departSpeed="max">
        <route edges="15218592#0 505860159 -330403834 -70748311#1 -70748314#2"/>
    </vehicle>
    <vehicle id="21" type="td_0" depart="57.20" departLane="best" departPos="random" departSpeed="max">
        <route edges="313465298#1 -596514114#1 -596514114#0 -791130340#1 -83115253#1 -83115253#0.15 4558441#0 284686649#1 284686653#1 284686653#2 5944787#1"/>
    </vehicle>
    <vehicle id="22" type="td_0" depart="57.80" departLane="best" departPos="random" departSpeed="max">
        <route edges="4533228#5 5772448#0 536841066 526016662#0 526016640#1 -11917063#2 -1089407128#3 -15675745#0 -842455631 -603349777#1 4440329.21 75470557#1 284686652#2 4743769#3 967647588#1 967647590#0"/>
    </vehicle>
    <vehicle id="23" type="td_0" depart="63.00" departLane="best" departPos="random" departSpeed="max">
        <route edges="1346189642#4 9922841.14 15675729#0 15675745#0 1089407128#3 11917063#0 526016660#0 548529066#0 526016643#1 -536841066 -28630236#0 378128430#1 -821304189#0 -1111971585#5"/>
    </vehicle>
    <vehicle id="24" type="td_0" depart="65.20" departLane="best" departPos="random" departSpeed="max">
        <route edges="-1230989714 -1011249147#1 -1011249147#0 -596514115#1 -1384314608#1 -298904469#2 -298904469#0 56081883#0 56081883#1 -860373106#1 -860373106#10 -860373106#0 860373106#0"/>
    </vehicle>
    <vehicle id="25" type="td_0" depart="65.60" departLane="best" departPos="random" departSpeed="max">
        <route edges="-E3 27433890#0.6 27433890#3 -27433876#1 -547047277#4 -547047277#2 284686649#1 284686653#1 284686653#2 -75470557#1 -4440329 603349776 842455631 15675745#0 -860373106#1 -860373106#10 -861311402#5 -1324076749#0 -1324076750#2 49600616#1"/>
    </vehicle>
    <vehicle id="26" type="td_0" depart="69.60" departLane="best" departPos="random" departSpeed="max">
        <route edges="842455631 15675745#0 1122939439#3 1122939439#4 -298904471#1 298904469#2 1384314608#1 313465298#1 29116100#2 29116100#4 29116100#6 29116100#9 1365026910#2 1213415600#0 26646994#1.11"/>
    </vehicle>
    <vehicle id="27" type="td_0" depart="70.00" departLane="best" departPos="random" departSpeed="max">
        <route edges="44906779#1 44906779#5 298496090#1 27433876#1 27433876#6"/>
    </vehicle>
    <vehicle id="28" type="td_0" depart="72.80" departLane="best" departPos="random" departSpeed="max">
        <route edges="4743764#2 527458585#1.18 1169825565 1169825567 1169825566#10 1169825568 1111971585#2 1111971585#5 821304189#0 536842076#1"/>
    </vehicle>
    <vehicle id="29" type="td_0" depart="73.60" departLane="best" departPos="random" departSpeed="max">
        <route edges="4533228#3 4533224#1 26645917#9 26645917#10 -313465295#1 -1230989714 -1011249147#1 546792884#1 -4558440#8 -4558440#4 -4558440#0 4627818#0 408534466#0"/>
    </vehicle>
    <vehicle id="30" type="td_0" depart="77.00" departLane="best" departPos="random" departSpeed="max">
        <route edges="-1211302819#0 4743768#1 4743768#5 4533228#1 4533228#3 4533228#5 5772448#0 -28630236#0"/>
    </vehicle>
    <vehicle id="31" type="td_0" depart="78.20" departLane="best" departPos="random" departSpeed="max">
        <route edges="1384314607#1 -1384314608#1 5772447#1 5772447#2 284686652#2 284686647#1 -4558441#0 83115253#0 -28420432#1 536837425#2"/>
    </vehicle>
    <vehicle id="32" type="td_0" depart="82.20" departLane="best" departPos="random" departSpeed="max">
        <route edges="35424540 -179097891#0 -330403834 -70748311#1 -5944797 -1341795079 -27433876#1 -547047277#4 -547047277#2 -4558441#0 83115253#0 -28420432#1"/>
    </vehicle>
    <vehicle id="33" type="td_0" depart="82.20" departLane="best" departPos="random" departSpeed="max">
        <route edges="817867132#0 817867132#0.82 4440330#2 860373106#0 860373106#1 860373106#1.9 1122939439#3 1122939439#4 -298904471#1 298904469#2 1384314608#1 596514115#1 1011249147#0"/>
    </vehicle>
    <vehicle id="34" type="td_0" depart="82.60" departLane="best" departPos="random" departSpeed="max">
        <route edges="-6275383#2 81552990#1 81552990#3 -683609958#1 -374533048 -371342811#1 4803465#1 -29116100#9 -43566484#7 -43566484#3 -147390905#6"/>
    </vehicle>
    <vehicle id="35" type="td_0" depart="82.80" departLane="best" departPos="random" departSpeed="max">
        <route edges="-4440330#2 1367076582#1 15675937#0 548529066#0 526016643#1 526016662#0 526016640#1 -11917063#2 -1089407128#3 1122939439#3 1122939439#4 -298904471#1 298904469#2 1384314608#1 313465298#1 29116100#2 29116100#4 29116100#6 29116100#9 1365026910#2 1213415600#0 1213415600#2 4730718#0 1007827874#1 147164232#0 284686654 -1324070803"/>
    </vehicle>
    <vehicle id="36" type="td_0" depart="85.60" departLane="best" departPos="random" departSpeed="max">
        <route edges="27014785#0 526016653#3 526016651 526016640#1 -11917063#2 -1089407128#3 -15675745#0 -842455631 -603349777#1 -44403291 -27433746 671965938 30640436#0 967647587#1"/>
    </vehicle>
    <vehicle id="37" type="td_0" depart="86.80" departLane="best" departPos="random" departSpeed="max">
        <route edges="-1089407128#3 -15675745#0 -842455631 -603349777#1 4440329.21 75470557#1 284686652#2 284686647#1 547047277#1 547047277#4 284686651#1 547047229#0 35424540 -179097891#0 -330403834 -70748311#1 -147161798#0 -1346229232 -147161801 -164974561#1 164974564#4"/>
    </vehicle>
    <vehicle id="38" type="td_0" depart="88.00" departLane="best" departPos="random" departSpeed="max">
        <route edges="11917063#0 -11917063#2 -1089407128#3 1122939439#3 1122939439#4 -298904471#1 4558438#1"/>
    </vehicle>
    <vehicle id="39" type="td_0" depart="90.40" departLane="best" departPos="random" departSpeed="max">
        <route edges="-147161801 -82956882 -39013715#1 -27434049 -32928276 E3 -208143935#1 -967647590#1 -967647590#0 -967647588#2 -4743769#3 284686653#1 284686653#2 -75470557#1 -4440329 -44403291"/>
    </vehicle>
    <vehicle id="40" type="td_0" depart="90.60" departLane="best" departPos="random" departSpeed="max">
        <route edges="-860373106#0 -4440330#2 1367076582#1 15675937#0 548529066#0 526016643#1 -536841066 -28630236#0 378128430#1 -821304189#0"/>
    </vehicle>
    <vehicle id="41" type="td_0" depart="92.00" departLane="best" departPos="random" departSpeed="max">
        <route edges="1172206635 -29116101#3 -29116101#2 -596514114#1 -596514114#0 -791130340#1 -83115253#1 -83115253#0.15 4558441#0 547047277#1 547047277#4 27433876#1 27433876#6 1169703853 70748311#1 330403834 179097891#0"/>
    </vehicle>
    <vehicle id="42" type="td_0" depart="92.60" departLane="best" departPos="random" departSpeed="max">
        <route edges="81358773#0 -4533225#1 -313465295#4 -313465295#1 -1230989714 -1011249147#1 -1011249147#0 -596514115#1 -1384314607#2 -207098749#3 284686647#1 547047277#1 547047277#4 27433876#1 27433876#6 1169703853 -70748314#2 -26154816#0"/>
    </vehicle>
    <vehicle id="43" type="td_0" depart="97.00" departLane="best" departPos="random" departSpeed="max">
        <route edges="-49872902 1279201427#0 4803511#1 4803511#4 -1213415600#0 -1365026910#3 -29116100#9 -29116100#6 -29116100#4 -29116100#2 -313465298#1 596514115#1 1011249147#0 546792884#1 4533224#8 4533224#9"/>
    </vehicle>
    <vehicle id="44" type="td_0" depart="102.00" departLane="best" departPos="random" departSpeed="max">
        <route edges="1007827874#1 147164232#0 284686654 -1324070803 -596514086#6 -596514086#3 4803465#1 -29116100#9 -29116100#6 -29116100#4 -29116100#2 -313465298#1 -1384314608#1 -298904469#2 -298904469#0 56081883#0 56081883#1 -860373106#1 -860373106#10 -860373106#0 -4440330#2"/>
    </vehicle>
    <vehicle id="45" type="td_0" depart="104.40" departLane="best" departPos="random" departSpeed="max">
        <route edges="5944787#1 E5 30640436#0 967647587#1 70748300 9922841.14 15675729#0 15675745#0 -860373106#1 -860373106#10 -861311402#5 -1324076749#0 -1324076750#2 49600616#1 49600616#3 1303164756#1"/>
    </vehicle>
    <vehicle id="46" type="td_0" depart="104.80" departLane="best" departPos="random" departSpeed="max">
        <route edges="70748314#1 -5944797 -1341795079 -27433876#1 -547047277#4 -547047277#2 284686649#1 207098749#2 1384314607#1"/>
    </vehicle>
    <vehicle id="47" type="td_0" depart="110.60" departLane="best" departPos="random" departSpeed="max">
        <route edges="1367076582#1 15675937#0 548529066#0 526016643#1 -536841066 -28630236#0 378128430#1 -821304189#0 -1111971585#5 -1111971585#2 -1169825568 -1169825566#1 -1169825567.9 -1169825565 -527458585#1 -4743764#2 -4533225#6 -4533225#3 -4533225#1 -313465295#4 -313465295#1 -1230989714"/>
    </vehicle>
    <vehicle id="48" type="td_0" depart="114.00" departLane="best" departPos="random" departSpeed="max">
        <route edges="-1365026910#3 -29116100#9 -29116100#6 -29116100#4 -29116100#2 -313465298#1 596514115#1 1011249147#0 546792884#1 -4558440#8 75470550#1"/>
    </vehicle>
    <vehicle id="49" type="td_0" depart="114.40" departLane="best" departPos="random" departSpeed="max">
        <route edges="81552989#4 536841067#0 6275379#1 4803426#0 1211302819#0.13 28682845#0 28682845#1 28682845#4 28682845#6 -1117202247#3 -374535325#4 4743764#2 527458585#1.18 1169825565 1169825567"/>
    </vehicle>
    <vehicle id="50" type="td_0" depart="116.00" departLane="best" departPos="random" departSpeed="max">
        <route edges="547047277#4 284686651#1 547047229#0 5944789#1 4803511#1 4803511#4 -1213415600#0 -1365026910#3 -4803465#2 371342811#1 374533048 683609958#1 683609958#3 683609958#8 -4803425 -1139084789#4 -1139084789#3 -1117202247#3 -374535325#4 4743764#2"/>
    </vehicle>
    <vehicle id="51" type="td_0" depart="118.80" departLane="best" departPos="random" departSpeed="max">
        <route edges="-E5 671965939#4 671965939#6 -4743769#3 284686647#1 547047277#1 547047277#4 284686651#1 547047229#0 35424540 -179097891#0 -330403834 -70748311#1 -147161798#0"/>
    </vehicle>
    <vehicle id="52" type="td_0" depart="122.20" departLane="best" departPos="random" departSpeed="max">
        <route edges="289146494#1 1121159178#0 -147164232#0 -1007827874#1 -79855537#0 -147390907#0 -179097891#0 -330403834 -70748311#1 -5944797 -1341795079 -27433876#1"/>
    </vehicle>
    <vehicle id="53" type="td_0" depart="122.60" departLane="best" departPos="random" departSpeed="max">
        <route edges="1346189642#4 9922841.14 5944786#2 671965938 -E5 671965939#4 671965939#6 -4743769#3 207098749#2"/>
    </vehicle>
    <vehicle id="54" type="td_0" depart="123.00" departLane="best" departPos="random" departSpeed="max">
        <route edges="-1211302819#0 -1209522756 -29116101#3 -29116101#2 -313465298#1 596514115#1 1011249147#0 546792884#1 -4558440#8 -4558440#4 -4558440#0"/>
    </vehicle>
    <vehicle id="55" type="td_0" depart="124.00" departLane="best" departPos="random" departSpeed="max">
        <route edges="-5881743#3 5881742#2 27433890#3 -27433876#1 -547047277#4 -547047277#2 284686649#1 207098749#2 1384314607#1 596514115#1 1011249147#0 1011249147#1 1230989714 313465295#1 313465295#4 4533228#1 4533228#3 4533228#5"/>
    </vehicle>
    <vehicle id="56" type="td_0" depart="124.60" departLane="best" departPos="random" departSpeed="max">
        <route edges="-29116100#4 -29116100#2 29116101#2 -29116101#2 29116100#2"/>
    </vehicle>
    <vehicle id="57" type="td_0" depart="128.20" departLane="best" departPos="random" departSpeed="max">
        <route edges="-967647590#0 -967647588#2 -4743769#3 207098749#2 1384314607#1 596514115#1 1011249147#0 1011249147#1 1230989714 313465295#1 313465295#4 4533225#1 4533225#3 4533225#6 374535325#1 26646028#1"/>
    </vehicle>
    <vehicle id="58" type="td_0" depart="132.60" departLane="best" departPos="random" departSpeed="max">
        <route edges="5944787#1 671965939#4 671965939#6 -4743769#3 284686647#1 -4558441#0 83115253#0 83115253#1 791130340#1 596514114#0 596514114#1 29116100#2 29116100#4 29116100#6 29116100#9"/>
    </vehicle>
    <vehicle id="59" type="td_0" depart="136.00" departLane="best" departPos="random" departSpeed="max">
        <route edges="-4803465#2 371342811#1 374533048 683609958#1 -683609958#1 -374533048 -371342811#1 4803465#1 -29116100#9 -29116100#6 -29116100#4 -29116100#2 -313465298#1 -1384314608#1 5772447#1 15734263#1"/>
    </vehicle>
    <vehicle id="60" type="td_0" depart="136.60" departLane="best" departPos="random" departSpeed="max">
        <route edges="-4558440#8 47449364#1 -4558438#1 298904469#2 1384314608#1 596514115#1 1011249147#0 1011249147#1 1230989714 313465295#1 313465295#4 4533225#1 4533225#3 4533225#6 -699663268#12 -699663268#7.15"/>
    </vehicle>
    <vehicle id="61" type="td_0" depart="137.00" departLane="best" departPos="random" departSpeed="max">
        <route edges="49600616#1 49600616#3 1303164756#1 9922841.14 15675729#0 15675745#0 1089407128#3 11917063#0 526016660#0 548529066#0 526016643#1 -536841066 -28630236#0 378128430#1 -821304189#0 -1111971585#5 -1111971585#2 -1169825568 -1169825566#1 -1169825567.9 -1169825565 -527458585#1 -4743764#2 -4533225#6 -4533225#3"/>
    </vehicle>
    <vehicle id="62" type="td_0" depart="138.00" departLane="best" departPos="random" departSpeed="max">
        <route edges="15734263#1 49519792#0 75470557#1 284686652#2 284686647#1 547047277#1 547047277#4 284686651#1 547047229#0 35424540 -179097891#0 -330403834 -70748311#1 -147161798#0 -1346229232 -147161801 -82956882"/>
    </vehicle>
    <vehicle id="63" type="td_0" depart="139.20" departLane="best" departPos="random" departSpeed="max">
        <route edges="298904469#2 1384314608#1 313465298#1 29116100#2 29116100#4 29116100#6 29116100#9 -4803465#2 -81552976#0 -26646102#2 15217539#1"/>
    </vehicle>
    <vehicle id="64" type="td_0" depart="141.80" departLane="best" departPos="random" departSpeed="max">
        <route edges="671965939#6 -4743769#3 284686653#1 284686653#2 -75470557#1 -4440329 603349776 842455631 15675745#0 -860373106#1 -860373106#10 -860373106#0 -4440330#2 1367076582#1"/>
    </vehicle>
    <vehicle id="65" type="td_0" depart="142.00" departLane="best" departPos="random" departSpeed="max">
        <route edges="683609958#8 -4803425 -1139084789#4 -1139084789#3 -28682845#6 -28682845#4 -28682845#1 -28682845#0 -1211302819#0 -1209522756 -29116101#3 -29116101#2 -313465298#1 -1384314608#1 -298904469#2 -298904469#0 56081883#0 56081883#1 -15675745#0"/>
    </vehicle>
    <vehicle id="66" type="td_0" depart="144.80" departLane="best" departPos="random" departSpeed="max">
        <route edges="11663984#1 11663984#5 548701323#1 -82956882 -39013715#1 -27434049 -32928276 E3 -208143935#1 -967647590#1 15218217#3"/>
    </vehicle>
    <vehicle id="67" type="td_0" depart="147.80" departLane="best" departPos="random" departSpeed="max">
        <route edges="-182071986#3 -1169825567.9 -1169825565 -527458585#1 -4743764#2 -4533225#6 -4533225#3 -4533225#1 -313465295#4 -313465295#1 -1230989714 -1011249147#1 -1011249147#0 -596514115#1 313465298#1 29116100#2 29116100#4 29116100#6 -43566484#7 -43566484#3 -5944791#1 5944790#3"/>
    </vehicle>
    <vehicle id="68" type="td_0" depart="148.20" departLane="best" departPos="random" departSpeed="max">
        <route edges="27433876#1 27433876#6 1169703853 70748311#1 330403834 -330403834 -70748311#1 -5944797 -1341795079 -27433876#1 -547047277#4 -547047277#2 284686649#1 207098749#2 1384314607#1 596514115#1 1011249147#0 1011249147#1 1230989714 313465295#1 313465295#4 4533228#1 4533228#3 4533224#1 26645917#9"/>
    </vehicle>
    <vehicle id="69" type="td_0" depart="149.40" departLane="best" departPos="random" departSpeed="max">
        <route edges="-4803405#0 4803405#0 -81552989#4 -81552989#1 -29116100#2 -313465298#1 -1384314607#2"/>
    </vehicle>
    <vehicle id="70" type="td_0" depart="149.80" departLane="best" departPos="random" departSpeed="max">
        <route edges="4533228#3 4533224#1 26645917#9 26645917#10 313465295#4 4533225#1 4533225#3 4533225#6 4743764#2 -1169825562#0 -1169825563#1 -4533227#1.24 4803424#1 521669299#0 521669299#4"/>
    </vehicle>
    <vehicle id="71" type="td_0" depart="150.80" departLane="best" departPos="random" departSpeed="max">
        <route edges="1346189642#4 9922841.14 15675729#0 15675745#0 1122939439#3 1122939439#4 -298904471#1 298904469#2 1384314608#1 313465298#1 29116100#2 29116100#4"/>
    </vehicle>
    <vehicle id="72" type="td_0" depart="155.20" departLane="best" departPos="random" departSpeed="max">
        <route edges="28951462#1 1111971585#2 1111971585#5 821304189#0 536842076#1 28630236#00 536841066 526016662#0 526016640#1 -11917063#2 -1089407128#3 -15675745#0 -842455631 -603349777#1 4440329.21 -49519792#0 49519792#0"/>
    </vehicle>
    <vehicle id="73" type="td_0" depart="158.60" departLane="best" departPos="random" departSpeed="max">
        <route edges="-31261713#1 -192236405#2 1139084789#1 1139084789#4 -26646344#0 26645212#1 26645212#2 26645212#4"/>
    </vehicle>
    <vehicle id="74" type="td_0" depart="159.60" departLane="best" departPos="random" departSpeed="max">
        <route edges="671965939#4 671965939#6 -4743769#3 284686647#1 547047277#1 547047277#4 284686651#1 547047229#0 35424540 147161802 -49872902 1279201427#0"/>
    </vehicle>
    <vehicle id="75" type="td_0" depart="160.40" departLane="best" departPos="random" departSpeed="max">
        <route edges="4743768#5 -313465295#4 -313465295#1 -1230989714 -1011249147#1 -1011249147#0 -596514115#1 313465298#1 29116100#2 29116100#4 29116100#6 29116100#9 4803466#1 -159977164#0"/>
    </vehicle>
    <vehicle id="76" type="td_0" depart="161.00" departLane="best" departPos="random" departSpeed="max">
        <route edges="1121159178#0 -147164232#0 -1007827874#1 -79855537#0 -147390907#0 -179097891#0 -330403834 -70748311#1 -147161798#0"/>
    </vehicle>
    <vehicle id="77" type="td_0" depart="162.40" departLane="best" departPos="random" departSpeed="max">
        <route edges="147390905#10 521669304#0 4803428#1 4803428#5 -29116100#2 29116101#2 29116101#3 1209522756 1211302819#0.13 28682845#0 28682845#1 28682845#4 28682845#6 192236405#1 31261713#1"/>
    </vehicle>
    <vehicle id="78" type="td_0" depart="165.80" departLane="best" departPos="random" departSpeed="max">
        <route edges="-28420432#1 -536837425#1 83115254#1 4558441#0 547047277#1 547047277#4 284686651#1 547047229#0 35424540 -179097891#0 -330403834 -70748311#1 -147161798#0 -1346229232 -147161801 -82956882 -39013715#1 -27434049 -32928276"/>
    </vehicle>
    <vehicle id="79" type="td_0" depart="167.80" departLane="best" departPos="random" departSpeed="max">
        <route edges="4558439#0 -4558438#1 298904469#2 1384314608#1 313465298#1 29116101#2 29116101#3 1209522756 1211302819#0.13 28682845#0 -28682845#0"/>
    </vehicle>
    <vehicle id="80" type="td_0" depart="171.20" departLane="best" departPos="random" departSpeed="max">
        <route edges="82956882.11 147161801 284686657 147161798#0 -5944797 -1341795079 -27433876#1 -547047277#4 -547047277#2 284686649#1 284686653#1 284686653#2 -75470557#1 -4440329 603349776 842455631 15675745#0 1089407128#3 11917063#0 526016660#0 548529066#0 526016649 1165309879#1 526016615#0"/>
    </vehicle>
    <vehicle id="81" type="td_0" depart="172.60" departLane="best" departPos="random" departSpeed="max">
        <route edges="1172206636.38 1172206635 -29116101#3 -29116101#2 -313465298#1 -1384314608#1 -298904469#2 -298904469#0 56081883#0 56081883#1 -860373106#1 -860373106#10 860373106#1 860373106#1.9 1122939439#3 1122939439#4 -298904471#1"/>
    </vehicle>
    <vehicle id="82" type="td_0" depart="172.80" departLane="best" departPos="random" departSpeed="max">
        <route edges="-536837425#2 28420432#0 83115253#1 791130340#1 596514114#0 596514114#1 29116100#2 29116100#4 29116100#6 29116100#9 1365026910#2 1213415600#0 -4803511#4"/>
    </vehicle>
    <vehicle id="83" type="td_0" depart="174.40" departLane="best" departPos="random" departSpeed="max">
        <route edges="536841066 -536841066 -28630236#0 378128430#1 -821304189#0 -1111971585#5 -1111971585#2 -1169825568 -1169825566#1 -1169825567.9 -1169825565 -527458585#1 -4743764#2 374535325#1 1117202247#1 1139084789#1 1139084789#4 -26646344#0 26645212#1 -6275383#6 -6275383#2"/>
    </vehicle>
    <vehicle id="84" type="td_0" depart="176.40" departLane="best" departPos="random" departSpeed="max">
        <route edges="284686657 147161798#0 -5944797 -1341795079 -27433876#1 -547047277#4 -547047277#2 284686649#1 284686653#1 284686653#2 -75470557#1 -4440329 603349776 842455631 15675745#0 -860373106#1 -860373106#10 -861311402#5 -1324076749#0 -1324076750#2"/>
    </vehicle>
    <vehicle id="85" type="td_0" depart="177.20" departLane="best" departPos="random" departSpeed="max">
        <route edges="5944789#1 147390905#1 44906779#1 44906779#5 298496090#1 27433876#1 27433876#6 1169703853 -70748314#2 -26154816#0 26154816#0 70748314#1"/>
    </vehicle>
    <vehicle id="86" type="td_0" depart="177.60" departLane="best" departPos="random" departSpeed="max">
        <route edges="4803512#1 4803512#3 29116100#6"/>
    </vehicle>
    <vehicle id="87" type="td_0" depart="177.80" departLane="best" departPos="random" departSpeed="max">
        <route edges="-1169825567.9 -1169825565 -527458585#1 -4743764#2 -4533225#6 -4533225#3 -4533225#1 -313465295#4 -313465295#1 -1230989714 -1011249147#1 -1011249147#0 -596514115#1 -1384314608#1 -298904469#2 -298904469#0 56081883#0 56081883#1 -860373106#1 -860373106#10 860373106#1 860373106#1.9 1122939439#3 1122939439#4 -298904471#1"/>
    </vehicle>
    <vehicle id="88" type="td_0" depart="178.20" departLane="best" departPos="random" departSpeed="max">
        <route edges="-79855537#0 -49872902 1279201427#0 4803511#1 4803511#4 -1213415600#0 -1365026910#3 -29116100#9 -29116100#6 -29116100#4 -29116100#2 -313465298#1 596514115#1 1011249147#0 546792884#1 -4558440#8 -4558440#4 -4558440#0 4627818#0 408534466#0"/>
    </vehicle>
    <vehicle id="89" type="td_0" depart="178.40" departLane="best" departPos="random" departSpeed="max">