<?xml version="1.0" encoding="UTF-8"?>

<!-- generated on 2026-03-31 13:26:41.238534 by Eclipse SUMO randomTrips.py v1_25_0+0000-ac6c5a6752d
<configuration>
    <net-file value="zurich.net.xml"/>
    <output-trip-file value="zurich-demo.rou.xml"/>
    <trip-attributes value="type=&quot;td_0&quot; departLane=&quot;best&quot; departSpeed=&quot;max&quot; departPos=&quot;random&quot;"/>
    <lanes value="True"/>
    <seed value="123"/>
    <insertion-rate value="2000.0 12000.0 3000.0 15000.0 4000.0 13000.0 2000.0"/>
    <random-depart value="True"/>
</configuration>
-->

<routes xmlns:xsi="http://www.w3.org/2001/XMLSchema-instance" xsi:noNamespaceSchemaLocation="http://sumo.dlr.de/xsd/routes_file.xsd">
    <trip id="0" depart="1.60" from="28420432#0" to="861311402#2" type="td_0" departLane="best" departSpeed="max" departPos="random"/>
    <trip id="1" depart="3.40" from="26645212#4" to="-4803511#4" type="td_0" departLane="best" departSpeed="max" departPos="random"/>
    <trip id="2" depart="6.00" from="298904469#2" to="26645917#0" type="td_0" departLane="best" departSpeed="max" departPos="random"/>
    <trip id="3" depart="12.40" from="-81552976#0" to="75470554#1" type="td_0" departLane="best" departSpeed="max" departPos="random"/>
    <trip id="4" depart="13.20" from="30640436#1" to="1279201427#0" type="td_0" departLane="best" departSpeed="max" departPos="random"/>
    <trip id="5" depart="14.20" from="6275382#7" to="4803465#1" type="td_0" departLane="best" departSpeed="max" departPos="random"/>
    <trip id="6" depart="15.80" from="83115254#1" to="-842455631" type="td_0" departLane="best" departSpeed="max" departPos="random"/>
    <trip id="7" depart="18.00" from="15675937#0" to="-4803512#3" type="td_0" departLane="best" departSpeed="max" departPos="random"/>
    <trip id="8" depart="21.00" from="4730718#0" to="548529066#0" type="td_0" departLane="best" departSpeed="max" departPos="random"/>
    <trip id="9" depart="23.80" from="4533225#6" to="4572091.56" type="td_0" departLane="best" departSpeed="max" departPos="random"/>
    <trip id="10" depart="26.00" from="-28682845#4" to="70748320#1" type="td_0" departLane="best" departSpeed="max" departPos="random"/>
    <trip id="11" depart="26.80" from="-298904469#2" to="45042940" type="td_0" departLane="best" departSpeed="max" departPos="random"/>
    <trip id="12" depart="28.00" from="4803405#0" to="-39013715#1" type="td_0" departLane="best" departSpeed="max" departPos="random"/>
    <trip id="13" depart="32.40" from="27014785#0" to="-521669302#0" type="td_0" departLane="best" departSpeed="max" departPos="random"/>
    <trip id="14" depart="32.80" from="81552996#0" to="-43566484#3" type="td_0" departLane="best" departSpeed="max" departPos="random"/>
    <trip id="15" depart="37.20" from="967647590#1" to="207098749#2" type="td_0" departLane="best" departSpeed="max" departPos="random"/>
    <trip id="16" depart="38.00" from="-1011249147#1" to="-298904469#2" type="td_0" departLane="best" departSpeed="max" departPos="random"/>
    <trip id="17" depart="42.60" from="-860373106#0" to="43566486#0" type="td_0" departLane="best" departSpeed="max" departPos="random"/>
    <trip id="18" depart="48.80" from="313465298#1" to="-4803427#1" type="td_0" departLane="best" departSpeed="max" departPos="random"/>
    <trip id="19" depart="49.00" from="1213415600#0" to="55455547#2" type="td_0" departLane="best" departSpeed="max" departPos="random"/>
    <trip id="20" depart="49.20" from="15218592#0" to="-70748314#2" type="td_0" departLane="best" departSpeed="max" departPos="random"/>
    <trip id="21" depart="57.20" from="313465298#1" to="5944787#1" type="td_0" departLane="best" departSpeed="max" departPos="random"/>
    <trip id="22" depart="57.80" from="4533228#5" to="967647590#0" type="td_0" departLane="best" departSpeed="max" departPos="random"/>
    <trip id="23" depart="63.00" from="1346189642#4" to="-1111971585#5" type="td_0" departLane="best" departSpeed="max" departPos="random"/>
    <trip id="24" depart="65.20" from="-1230989714" to="860373106#0" type="td_0" departLane="best" departSpeed="max" departPos="random"/>
    <trip id="25" depart="65.60" from="-E3" to="49600616#1" type="td_0" departLane="best" departSpeed="max" departPos="random"/>
    <trip id="26" depart="69.60" from="842455631" to="26646994#1.11" type="td_0" departLane="best" departSpeed="max" departPos="random"/>
    <trip id="27" depart="70.00" from="44906779#1" to="27433876#6" type="td_0" departLane="best" departSpeed="max" departPos="random"/>
    <trip id="28" depart="72.80" from="4743764#2" to="536842076#1" type="td_0" departLane="best" departSpeed="max" departPos="random"/>
    <trip id="29" depart="73.60" from="4533228#3" to="408534466#0" type="td_0" departLane="best" departSpeed="max" departPos="random"/>
    <trip id="30" depart="77.00" from="-1211302819#0" to="-28630236#0" type="td_0" departLane="best" departSpeed="max" departPos="random"/>
    <trip id="31" depart="78.20" from="1384314607#1" to="536837425#2" type="td_0" departLane="best" departSpeed="max" departPos="random"/>
    <trip id="32" depart="82.20" from="35424540" to="-28420432#1" type="td_0" departLane="best" departSpeed="max" departPos="random"/>
    <trip id="33" depart="82.20" from="817867132#0" to="1011249147#0" type="td_0" departLane="best" departSpeed="max" departPos="random"/>
    <trip id="34" depart="82.60" from="-6275383#2" to="-147390905#6" type="td_0" departLane="best" departSpeed="max" departPos="random"/>
    <trip id="35" depart="82.80" from="-4440330#2" to="-1324070803" type="td_0" departLane="best" departSpeed="max" departPos="random"/>
    <trip id="36" depart="85.60" from="27014785#0" to="967647587#1" type="td_0" departLane="best" departSpeed="max" departPos="random"/>
    <trip id="37" depart="86.80" from="-1089407128#3" to="164974564#4" type="td_0" departLane="best" departSpeed="max" departPos="random"/>
    <trip id="38" depart="88.00" from="11917063#0" to="4558438#1" type="td_0" departLane="best" departSpeed="max" departPos="random"/>
    <trip id="39" depart="90.40" from="-147161801" to="-44403291" type="td_0" departLane="best" departSpeed="max" departPos="random"/>
    <trip id="40" depart="90.60" from="-860373106#0" to="-821304189#0" type="td_0" departLane="best" departSpeed="max" departPos="random"/>
    <trip id="41" depart="92.00" from="1172206635" to="179097891#0" type="td_0" departLane="best" departSpeed="max" departPos="random"/>
    <trip id="42" depart="92.60" from="81358773#0" to="-26154816#0" type="td_0" departLane="best" departSpeed="max" departPos="random"/>
    <trip id="43" depart="97.00" from="-49872902" to="4533224#9" type="td_0" departLane="best" departSpeed="max" departPos="random"/>
    <trip id="44" depart="102.00" from="1007827874#1" to="-4440330#2" type="td_0" departLane="best" departSpeed="max" departPos="random"/>
    <trip id="45" depart="104.40" from="5944787#1" to="1303164756#1" type="td_0" departLane="best" departSpeed="max" departPos="random"/>
    <trip id="46" depart="104.80" from="70748314#1" to="1384314607#1" type="td_0" departLane="best" departSpeed="max" departPos="random"/>
    <trip id="47" depart="110.60" from="1367076582#1" to="-1230989714" type="td_0" departLane="best" departSpeed="max" departPos="random"/>
    <trip id="48" depart="114.00" from="-1365026910#3" to="75470550#1" type="td_0" departLane="best" departSpeed="max" departPos="random"/>
    <trip id="49" depart="114.40" from="81552989#4" to="1169825567" type="td_0" departLane="best" departSpeed="max" departPos="random"/>
    <trip id="50" depart="116.00" from="547047277#4" to="4743764#2" type="td_0" departLane="best" departSpeed="max" departPos="random"/>
    <trip id="51" depart="118.80" from="-E5" to="-147161798#0" type="td_0" departLane="best" departSpeed="max" departPos="random"/>
    <trip id="52" depart="122.20" from="289146494#1" to="-27433876#1" type="td_0" departLane="best" departSpeed="max" departPos="random"/>
    <trip id="53" depart="122.60" from="1346189642#4" to="207098749#2" type="td_0" departLane="best" departSpeed="max" departPos="random"/>
    <trip id="54" depart="123.00" from="-1211302819#0" to="-4558440#0" type="td_0" departLane="best" departSpeed="max" departPos="random"/>
    <trip id="55" depart="124.00" from="-5881743#3" to="4533228#5" type="td_0" departLane="best" departSpeed="max" departPos="random"/>
    <trip id="56" depart="124.60" from="-29116100#4" to="29116100#2" type="td_0" departLane="best" departSpeed="max" departPos="random"/>
    <trip id="57" depart="128.20" from="-967647590#0" to="26646028#1" type="td_0" departLane="best" departSpeed="max" departPos="random"/>
    <trip id="58" depart="132.60" from="5944787#1" to="29116100#9" type="td_0" departLane="best" departSpeed="max" departPos="random"/>
    <trip id="59" depart="136.00" from="-4803465#2" to="15734263#1" type="td_0" departLane="best" departSpeed="max" departPos="random"/>
    <trip id="60" depart="136.60" from="-4558440#8" to="-699663268#7.15" type="td_0" departLane="best" departSpeed="max" departPos="random"/>
    <trip id="61" depart="137.00" from="49600616#1" to="-4533225#3" type="td_0" departLane="best" departSpeed="max" departPos="random"/>
    <trip id="62" depart="138.00" from="15734263#1" to="-82956882" type="td_0" departLane="best" departSpeed="max" departPos="random"/>
    <trip id="63" depart="139.20" from="298904469#2" to="15217539#1" type="td_0" departLane="best" departSpeed="max" departPos="random"/>
    <trip id="64" depart="141.80" from="671965939#6" to="1367076582#1" type="td_0" departLane="best" departSpeed="max" departPos="random"/>
    <trip id="65" depart="142.00" from="683609958#8" to="-15675745#0" type="td_0" departLane="best" departSpeed="max" departPos="random"/>
    <trip id="66" depart="144.80" from="11663984#1" to="15218217#3" type="td_0" departLane="best" departSpeed="max" departPos="random"/>
    <trip id="67" depart="147.80" from="-182071986#3" to="5944790#3" type="td_0" departLane="best" departSpeed="max" departPos="random"/>
    <trip id="68" depart="148.20" from="27433876#1" to="26645917#9" type="td_0" departLane="best" departSpeed="max" departPos="random"/>
    <trip id="69" depart="149.40" from="-4803405#0" to="-1384314607#2" type="td_0" departLane="best" departSpeed="max" departPos="random"/>
    <trip id="70" depart="149.80" from="4533228#3" to="521669299#4" type="td_0" departLane="best" departSpeed="max" departPos="random"/>
    <trip id="71" depart="150.80" from="1346189642#4" to="29116100#4" type="td_0" departLane="best" departSpeed="max" departPos="random"/>
    <trip id="72" depart="155.20" from="28951462#1" to="49519792#0" type="td_0" departLane="best" departSpeed="max" departPos="random"/>
    <trip id="73" depart="158.60" from="-31261713#1" to="26645212#4" type="td_0" departLane="best" departSpeed="max" departPos="random"/>
    <trip id="74" depart="159.60" from="671965939#4" to="1279201427#0" type="td_0" departLane="best" departSpeed="max" departPos="random"/>
    <trip id="75" depart="160.40" from="4743768#5" to="-159977164#0" type="td_0" departLane="best" departSpeed="max" departPos="random"/>
    <trip id="76" depart="161.00" from="1121159178#0" to="-147161798#0" type="td_0" departLane="best" departSpeed="max" departPos="random"/>
    <trip id="77" depart="162.40" from="147390905#10" to="31261713#1" type="td_0" departLane="best" departSpeed="max" departPos="random"/>
    <trip id="78" depart="165.80" from="-28420432#1" to="-32928276" type="td_0" departLane="best" departSpeed="max" departPos="random"/>
    <trip id="79" depart="167.80" from="4558439#0" to="-28682845#0" type="td_0" departLane="best" departSpeed="max" departPos="random"/>
    <trip id="80" depart="171.20" from="82956882.11" to="526016615#0" type="td_0" departLane="best" departSpeed="max" departPos="random"/>
    <trip id="81" depart="172.60" from="1172206636.38" to="-298904471#1" type="td_0" departLane="best" departSpeed="max" departPos="random"/>
    <trip id="82" depart="172.80" from="-536837425#2" to="-4803511#4" type="td_0" departLane="best" departSpeed="max" departPos="random"/>
    <trip id="83" depart="174.40" from="536841066" to="-6275383#2" type="td_0" departLane="best" departSpeed="max" departPos="random"/>
    <trip id="84" depart="176.40" from="284686657" to="-1324076750#2" type="td_0" departLane="best" departSpeed="max" departPos="random"/>
    <trip id="85" depart="177.20" from="5944789#1" to="70748314#1" type="td_0" departLane="best" departSpeed="max" departPos="random"/>
    <trip id="86" depart="177.60" from="4803512#1" to="29116100#6" type="td_0" departLane="best" departSpeed="max" departPos="random"/>
    <trip id="87" depart="177.80" from="-1169825567.9" to="-298904471#1" type="td_0" departLane="best" departSpeed="max" departPos="random"/>
    <trip id="88" depart="178.20" from="-79855537#0" to="408534466#0" type="td_0" departLane="best" departSpeed="max" departPos="random"/>
    <trip id="89" depart="178.40" from="-29116101#2" to="-1213415600#3" type="td_0" departLane="best" departSpeed="max" departPos="random"/>
    <trip id="90" depart="181.60" from="-4803511#4" to="-967647590#0" type="td_0" departLane="best" departSpeed="max" departPos="random"/>
    <trip id="91" depart="181.80" from="-159977163#4" to="683609958#1" type="td_0" departLane="best" departSpeed="max" departPos="random"/>
    <trip id="92" depart="182.20" from="26675135#0" to="-1341795079" type="td_0" departLane="best" departSpeed="max" departPos="random"/>
    <trip id="93" depart="184.60" from="378128430#1" to="371342811#1" type="td_0" departLane="best" departSpeed="max" departPos="random"/>
    <trip id="94" depart="184.60" from="1172206635" to="-298904469#2" type="td_0" departLane="best" departSpeed="max" departPos="random"/>
    <trip id="95" depart="185.00" from="4440330#2" to="-330403834" type="td_0" departLane="best" departSpeed="max" departPos="random"/>
    <trip id="96" depart="185.40" from="4803511#1" to="284686653#2" type="td_0" departLane="best" departSpeed="max" departPos="random"/>
    <trip id="97" depart="188.00" from="29116100#6" to="-699663268#4" type="td_0" departLane="best" departSpeed="max" departPos="random"/>
    <trip id="98" depart="191.20" from="1279201427#0" to="28802258#0" type="td_0" departLane="best" departSpeed="max" departPos="random"/>
    <trip id="99" depart="191.20" from="683609958#8" to="-29116100#6" type="td_0" departLane="best" departSpeed="max" departPos="random"/>
    <trip id="100" depart="192.00" from="-4730718#0" to="47449364#1" type="td_0" departLane="best" departSpeed="max" departPos="random"/>
    <trip id="101" depart="193.20" from="521669302#0" to="208143935#1" type="td_0" departLane="best" departSpeed="max" departPos="random"/>
    <trip id="102" depart="197.20" from="9935272#2.10" to="28630236#00" type="td_0" departLane="best" departSpeed="max" departPos="random"/>
    <trip id="103" depart="197.20" from="81552976#0" to="-4533225#3" type="td_0" departLane="best" departSpeed="max" departPos="random"/>
    <trip id="104" depart="198.00" from="26645827#1" to="-4803511#4" type="td_0" departLane="best" departSpeed="max" departPos="random"/>
    <trip id="105" depart="198.40" from="6275379#1" to="-26647215#1" type="td_0" departLane="best" departSpeed="max" departPos="random"/>
    <trip id="106" depart="201.60" from="-596514114#1" to="-377260838#2" type="td_0" departLane="best" departSpeed="max" departPos="random"/>
    <trip id="107" depart="202.60" from="-1139084789#4" to="4592657#1" type="td_0" departLane="best" departSpeed="max" departPos="random"/>
    <trip id="108" depart="204.60" from="298904469#2" to="41221165" type="td_0" departLane="best" departSpeed="max" departPos="random"/>
    <trip id="109" depart="204.80" from="-4743769#3" to="313465298#1" type="td_0" departLane="best" departSpeed="max" departPos="random"/>
    <trip id="110" depart="207.60" from="-4743769#3" to="298496090#1" type="td_0" departLane="best" departSpeed="max" departPos="random"/>
    <trip id="111" depart="210.80" from="-15217539#1" to="-547047277#4" type="td_0" departLane="best" departSpeed="max" departPos="random"/>
    <trip id="112" depart="212.20" from="82956882.11" to="29116101#2" type="td_0" departLane="best" departSpeed="max" departPos="random"/>
    <trip id="113" depart="212.40" from="967647590#0" to="-1089407128#3" type="td_0" departLane="best" departSpeed="max" departPos="random"/>
    <trip id="114" depart="212.60" from="4572091.56" to="-164974564#4" type="td_0" departLane="best" departSpeed="max" departPos="random"/>
    <trip id="115" depart="213.80" from="24586239#0" to="967647587#1" type="td_0" departLane="best" departSpeed="max" departPos="random"/>
    <trip id="116" depart="223.00" from="-147390905#3" to="15218217#3" type="td_0" departLane="best" departSpeed="max" departPos="random"/>
    <trip id="117" depart="225.20" from="20020535#1" to="1367076582#1" type="td_0" departLane="best" departSpeed="max" departPos="random"/>
    <trip id="118" depart="227.00" from="-6275379#2" to="4803456#5" type="td_0" departLane="best" departSpeed="max" departPos="random"/>
    <trip id="119" depart="227.80" from="313465295#4" to="-29116100#4" type="td_0" departLane="best" departSpeed="max" departPos="random"/>
    <trip id="120" depart="228.80" from="-79855537#0" to="13863761#3" type="td_0" departLane="best" departSpeed="max" departPos="random"/>
    <trip id="121" depart="231.20" from="4803424#1" to="15675729#0" type="td_0" departLane="best" departSpeed="max" departPos="random"/>
    <trip id="122" depart="231.80" from="-596514114#1" to="4533225#6" type="td_0" departLane="best" departSpeed="max" departPos="random"/>
    <trip id="123" depart="234.20" from="15675937#0" to="-E0" type="td_0" departLane="best" departSpeed="max" departPos="random"/>
    <trip id="124" depart="235.40" from="56081883#0" to="-4803511#1" type="td_0" departLane="best" departSpeed="max" departPos="random"/>
    <trip id="125" depart="240.80" from="-967647588#2" to="70748311#1" type="td_0" departLane="best" departSpeed="max" departPos="random"/>
    <trip id="126" depart="243.40" from="-49600616#2" to="284686647#1" type="td_0" departLane="best" departSpeed="max" departPos="random"/>
    <trip id="127" depart="248.00" from="-164974564#4" to="-1089407128#3" type="td_0" departLane="best" departSpeed="max" departPos="random"/>
    <trip id="128" depart="250.20" from="4592590#1" to="1139084789#1" type="td_0" departLane="best" departSpeed="max" departPos="random"/>
    <trip id="129" depart="252.00" from="1384314608#1" to="1169825562#0" type="td_0" departLane="best" departSpeed="max" departPos="random"/>
    <trip id="130" depart="253.60" from="-313465295#1" to="-39013715#1" type="td_0" departLane="best" departSpeed="max" departPos="random"/>
    <trip id="131" depart="253.60" from="44906779#5" to="-4558440#8" type="td_0" departLane="best" departSpeed="max" departPos="random"/>
    <trip id="132" depart="254.80" from="13863761#3" to="-29116100#6" type="td_0" departLane="best" departSpeed="max" departPos="random"/>
    <trip id="133" depart="260.60" from="49600616#3" to="26646994#1.11" type="td_0" departLane="best" departSpeed="max" departPos="random"/>
    <trip id="134" depart="262.60" from="4743768#5" to="1324076750#2" type="td_0" departLane="best" departSpeed="max" departPos="random"/>
    <trip id="135" depart="263.60" from="1089407128#3" to="-536841066" type="td_0" departLane="best" departSpeed="max" departPos="random"/>
    <trip id="136" depart="265.00" from="28420432#0" to="547047277#4" type="td_0" departLane="best" departSpeed="max" departPos="random"/>
    <trip id="137" depart="265.00" from="860373106#0" to="1169825568" type="td_0" departLane="best" departSpeed="max" departPos="random"/>
    <trip id="138" depart="265.20" from="4558440#0" to="45042940" type="td_0" departLane="best" departSpeed="max" departPos="random"/>
    <trip id="139" depart="265.40" from="-1011249147#1" to="699663268#4" type="td_0" departLane="best" departSpeed="max" departPos="random"/>
    <trip id="140" depart="267.20" from="967647590#1" to="-4803427#1" type="td_0" departLane="best" departSpeed="max" departPos="random"/>
    <trip id="141" depart="269.80" from="28682845#6" to="-298904469#0" type="td_0" departLane="best" departSpeed="max" departPos="random"/>
    <trip id="142" depart="271.00" from="4592590#1" to="-791130340#1" type="td_0" departLane="best" departSpeed="max" departPos="random"/>
    <trip id="143" depart="273.80" from="4572091.56" to="35424540" type="td_0" departLane="best" departSpeed="max" departPos="random"/>
    <trip id="144" depart="275.60" from="-81552989#1" to="9922841.14" type="td_0" departLane="best" departSpeed="max" departPos="random"/>
    <trip id="145" depart="275.80" from="-1365026910#3" to="-1169825563#1" type="td_0" departLane="best" departSpeed="max" departPos="random"/>
    <trip id="146" depart="276.80" from="-27434049" to="-5772448#2" type="td_0" departLane="best" departSpeed="max" departPos="random"/>
    <trip id="147" depart="278.40" from="164974564#1" to="422991319#1" type="td_0" departLane="best" departSpeed="max" departPos="random"/>
    <trip id="148" depart="279.20" from="374535325#1" to="-298904471#1" type="td_0" departLane="best" departSpeed="max" departPos="random"/>
    <trip id="149" depart="280.00" from="26645917#0" to="-371342811#1" type="td_0" departLane="best" departSpeed="max" departPos="random"/>
    <trip id="150" depart="281.60" from="-547047229#0" to="1172206636.9" type="td_0" departLane="best" departSpeed="max" departPos="random"/>
    <trip id="151" depart="285.80" from="15675729#0" to="1169703852#1" type="td_0" departLane="best" departSpeed="max" departPos="random"/>
    <trip id="152" depart="286.80" from="1172206637#0" to="860373106#1.9" type="td_0" departLane="best" departSpeed="max" departPos="random"/>
    <trip id="153" depart="287.20" from="4533228#1" to="-81552976#0" type="td_0" departLane="best" departSpeed="max" departPos="random"/>
    <trip id="154" depart="287.60" from="-28420432#1" to="-4803511#4" type="td_0" departLane="best" departSpeed="max" departPos="random"/>
    <trip id="155" depart="288.00" from="4803512#3" to="E5" type="td_0" departLane="best" departSpeed="max" departPos="random"/>
    <trip id="156" depart="288.80" from="-596514114#1" to="-179097891#0" type="td_0" departLane="best" departSpeed="max" departPos="random"/>
    <trip id="157" depart="289.20" from="-E4" to="82956882.11" type="td_0" departLane="best" departSpeed="max" departPos="random"/>
    <trip id="158" depart="290.20" from="-547047277#2" to="4803511#1" type="td_0" departLane="best" departSpeed="max" departPos="random"/>
    <trip id="159" depart="293.00" from="26646397#2" to="159977164#3" type="td_0" departLane="best" departSpeed="max" departPos="random"/>
    <trip id="160" depart="293.60" from="147390905#1" to="1324076750#2" type="td_0" departLane="best" departSpeed="max" departPos="random"/>
    <trip id="161" depart="295.60" from="-182071998#2" to="182071991#0" type="td_0" departLane="best" departSpeed="max" departPos="random"/>
    <trip id="162" depart="296.20" from="671965939#6" to="298904469#2" type="td_0" departLane="best" departSpeed="max" departPos="random"/>
    <trip id="163" depart="297.60" from="861311402#2" to="-28682845#1" type="td_0" departLane="best" departSpeed="max" departPos="random"/>
    <trip id="164" depart="298.40" from="-377260838#2" to="-1169703852#1" type="td_0" departLane="best" departSpeed="max" departPos="random"/>
    <trip id="165" depart="301.00" from="817867132#0.82" to="-147390907#0" type="td_0" departLane="best" departSpeed="max" departPos="random"/>
    <trip id="166" depart="301.20" from="26646028#1" to="159977164#0" type="td_0" departLane="best" departSpeed="max" departPos="random"/>
    <trip id="167" depart="305.00" from="298904469#2" to="-596514115#1" type="td_0" departLane="best" departSpeed="max" departPos="random"/>
    <trip id="168" depart="305.20" from="75470550#1" to="-81358773#0" type="td_0" departLane="best" departSpeed="max" departPos="random"/>
    <trip id="169" depart="309.20" from="-43566484#3" to="298904469#2" type="td_0" departLane="best" departSpeed="max" departPos="random"/>
    <trip id="170" depart="309.20" from="547047229#0" to="-1209522756" type="td_0" departLane="best" departSpeed="max" departPos="random"/>
    <trip id="171" depart="316.80" from="44906784#1" to="596514086#3" type="td_0" departLane="best" departSpeed="max" departPos="random"/>
    <trip id="172" depart="317.40" from="298904469#2" to="-6275383#6" type="td_0" departLane="best" departSpeed="max" departPos="random"/>
    <trip id="173" depart="318.40" from="5881743#1" to="-596514114#0" type="td_0" departLane="best" departSpeed="max" departPos="random"/>
    <trip id="174" depart="318.80" from="26646028#1" to="1169825566#10" type="td_0" departLane="best" departSpeed="max" departPos="random"/>
    <trip id="175" depart="323.00" from="-26646987#2" to="-298904469#0" type="td_0" departLane="best" departSpeed="max" departPos="random"/>
    <trip id="176" depart="326.40" from="817867132#0" to="-26645783#1" type="td_0" departLane="best" departSpeed="max" departPos="random"/>
    <trip id="177" depart="327.40" from="1324076749#0" to="-1384314607#2" type="td_0" departLane="best" departSpeed="max" departPos="random"/>
    <trip id="178" depart="328.40" from="4803456#1" to="27433890#0.6" type="td_0" departLane="best" departSpeed="max" departPos="random"/>
    <trip id="179" depart="328.80" from="35424540" to="1169825565" type="td_0" departLane="best" departSpeed="max" departPos="random"/>
    <trip id="180" depart="331.20" from="4730408#3" to="4803424#1" type="td_0" departLane="best" departSpeed="max" departPos="random"/>
    <trip id="181" depart="332.60" from="-39013715#1" to="4803511#4" type="td_0" departLane="best" departSpeed="max" departPos="random"/>
    <trip id="182" depart="335.80" from="5881742#2" to="-683609958#1" type="td_0" departLane="best" departSpeed="max" departPos="random"/>
    <trip id="183" depart="337.20" from="1169825568" to="141885659#1" type="td_0" departLane="best" departSpeed="max" departPos="random"/>
    <trip id="184" depart="338.00" from="298904469#2" to="-4558439#1" type="td_0" departLane="best" departSpeed="max" departPos="random"/>
    <trip id="185" depart="338.60" from="-75470557#1" to="699663268#5" type="td_0" departLane="best" departSpeed="max" departPos="random"/>
    <trip id="186" depart="339.00" from="284686653#2" to="4803511#1" type="td_0" departLane="best" departSpeed="max" departPos="random"/>
    <trip id="187" depart="339.80" from="-49600616#2" to="30640436#0" type="td_0" departLane="best" departSpeed="max" departPos="random"/>
    <trip id="188" depart="342.20" from="1007827874#1" to="284686657" type="td_0" departLane="best" departSpeed="max" departPos="random"/>
    <trip id="189" depart="343.80" from="-29116100#9" to="182071998#0" type="td_0" departLane="best" departSpeed="max" departPos="random"/>
    <trip id="190" depart="346.00" from="-147164232#0" to="-28682845#6" type="td_0" departLane="best" departSpeed="max" departPos="random"/>
    <trip id="191" depart="348.60" from="32928276" to="4743769#3" type="td_0" departLane="best" departSpeed="max" departPos="random"/>
    <trip id="192" depart="348.80" from="43566484#6" to="1169825567" type="td_0" departLane="best" departSpeed="max" departPos="random"/>
    <trip id="193" depart="352.20" from="164974564#4" to="-4572091" type="td_0" departLane="best" departSpeed="max" departPos="random"/>
    <trip id="194" depart="353.40" from="-70748314#2" to="-4572091" type="td_0" departLane="best" departSpeed="max" departPos="random"/>
    <trip id="195" depart="353.40" from="-4730718#0" to="5944791#1" type="td_0" departLane="best" departSpeed="max" departPos="random"/>
    <trip id="196" depart="354.60" from="-28421032#2" to="284686653#2" type="td_0" departLane="best" departSpeed="max" departPos="random"/>
    <trip id="197" depart="355.80" from="1117202247#1" to="4803408#0" type="td_0" departLane="best" departSpeed="max" departPos="random"/>
    <trip id="198" depart="356.80" from="70732845#0" to="-147161801" type="td_0" departLane="best" departSpeed="max" departPos="random"/>
    <trip id="199" depart="358.00" from="83115254#1" to="28682845#1" type="td_0" departLane="best" departSpeed="max" departPos="random"/>
    <trip id="200" depart="359.80" from="4558441#0" to="6275380#0" type="td_0" departLane="best" departSpeed="max" departPos="random"/>
    <trip id="201" depart="361.20" from="817867132#0" to="41221165" type="td_0" departLane="best" departSpeed="max" departPos="random"/>
    <trip id="202" depart="362.40" from="-4803512#3" to="5944786#2" type="td_0" departLane="best" departSpeed="max" departPos="random"/>
    <trip id="203" depart="363.60" from="-82956882" to="-4558440#0" type="td_0" departLane="best" departSpeed="max" departPos="random"/>
    <trip id="204" depart="364.00" from="1139084789#4" to="27433876#6" type="td_0" departLane="best" departSpeed="max" departPos="random"/>
    <trip id="205" depart="364.20" from="671965939#6" to="26646102#2" type="td_0" departLane="best" departSpeed="max" departPos="random"/>
    <trip id="206" depart="366.00" from="-6275383#2" to="488736536#1" type="td_0" departLane="best" departSpeed="max" departPos="random"/>
    <trip id="207" depart="368.40" from="967647587#1" to="4533224#9" type="td_0" departLane="best" departSpeed="max" departPos="random"/>
    <trip id="208" depart="369.60" from="548529066#0" to="1324070803" type="td_0" departLane="best" departSpeed="max" departPos="random"/>
    <trip id="209" depart="369.80" from="-70748311#1" to="1011249147#1" type="td_0" departLane="best" departSpeed="max" departPos="random"/>
    <trip id="210" depart="370.20" from="4730408#3" to="284686654" type="td_0" departLane="best" departSpeed="max" departPos="random"/>