<?xml version='1.0' encoding='utf-8'?>
<routes xmlns:xsi="http://www.w3.org/2001/XMLSchema-instance" xsi:noNamespaceSchemaLocation="http://sumo.dlr.de/xsd/routes_file.xsd">
  <trip id="2" depart="0.00" from="right1D1" to="E5" type="td_0" departLane="best" departSpeed="max" departPos="random" />
  <trip id="4" depart="0.00" from="-E27" to="A2A1" type="td_0" departLane="best" departSpeed="max" departPos="random" />
  <trip id="1" depart="0.00" from="E38" to="-E16" type="td_0" departLane="best" departSpeed="max" departPos="random" />
  <trip id="3" depart="0.00" from="B2C2" to="B3C3" type="td_0" departLane="best" departSpeed="max" departPos="random" />
  <trip id="11" depart="1.00" from="A3B3" to="E37" type="td_0" departLane="best" departSpeed="max" departPos="random" />
  <trip id="8" depart="1.00" from="C3top2" to="C2C1" type="td_0" departLane="best" departSpeed="max" departPos="random" />
  <trip id="13" depart="2.00" from="C1D1" to="E28" type="td_0" departLane="best" departSpeed="max" departPos="random" />
  <trip id="14" depart="2.00" from="B2C2" to="C2B2" type="td_0" departLane="best" departSpeed="max" departPos="random" />
  <trip id="18" depart="3.00" from="D2C2" to="-E22" type="td_0" departLane="best" departSpeed="max" departPos="random" />
  <trip id="19" depart="3.00" from="-E30" to="-E52" type="td_0" departLane="best" departSpeed="max" departPos="random" />
  <trip id="16" depart="3.00" from="-E63" to="left2A2" type="td_0" departLane="best" departSpeed="max" departPos="random" />
  <trip id="22" depart="4.00" from="-E4" to="E56.635" type="td_0" departLane="best" departSpeed="max" departPos="random" />
  <trip id="25" depart="4.00" from="-E25.370" to="D1C1" type="td_0" departLane="best" departSpeed="max" departPos="random" />
  <trip id="37" depart="6.00" from="-E56.635" to="E25" type="td_0" departLane="best" departSpeed="max" departPos="random" />
  <trip id="35" depart="6.00" from="E21" to="-E20" type="td_0" departLane="best" departSpeed="max" departPos="random" />
  <trip id="34" depart="6.00" from="left3A3" to="left2A2" type="td_0" departLane="best" departSpeed="max" departPos="random" />
  <trip id="41" depart="7.00" from="D0bottom3" to="B3C3" type="td_0" departLane="best" departSpeed="max" departPos="random" />
  <trip id="44" depart="7.00" from="left1A1" to="-E6" type="td_0" departLane="best" departSpeed="max" departPos="random" />
  <trip id="40" depart="7.00" from="E65" to="B3C3" type="td_0" departLane="best" departSpeed="max" departPos="random" />
  <trip id="47" depart="8.00" from="E61" to="B1B2" type="td_0" departLane="best" departSpeed="max" departPos="random" />
  <trip id="51" depart="9.00" from="-E62" to="-E27" type="td_0" departLane="best" departSpeed="max" departPos="random" />
  <trip id="50" depart="9.00" from="-E37" to="-E16" type="td_0" departLane="best" departSpeed="max" departPos="random" />
  <trip id="55" depart="10.00" from="right1D1" to="C0B0" type="td_0" departLane="best" departSpeed="max" departPos="random" />
  <trip id="54" depart="10.00" from="D0D1" to="C2C3" type="td_0" departLane="best" departSpeed="max" departPos="random" />
  <trip id="58" depart="11.00" from="D1C1" to="D3top3" type="td_0" departLane="best" departSpeed="max" departPos="random" />
  <trip id="57" depart="11.00" from="-E29" to="C0C1" type="td_0" departLane="best" departSpeed="max" departPos="random" />
  <trip id="60" depart="11.00" from="-E61" to="C3D3" type="td_0" departLane="best" departSpeed="max" departPos="random" />
  <trip id="70" depart="13.00" from="B1C1" to="-E11" type="td_0" departLane="best" departSpeed="max" departPos="random" />
  <trip id="67" depart="13.00" from="C2C1" to="bottom1B0" type="td_0" departLane="best" departSpeed="max" departPos="random" />
  <trip id="71" depart="14.00" from="B1B0" to="D3right3" type="td_0" departLane="best" departSpeed="max" departPos="random" />
  <trip id="74" depart="14.00" from="-E55" to="-E64" type="td_0" departLane="best" departSpeed="max" departPos="random" />
  <trip id="81" depart="15.00" from="-E36" to="-E37" type="td_0" departLane="best" departSpeed="max" departPos="random" />
  <trip id="77" depart="15.00" from="E23" to="D1right1" type="td_0" departLane="best" departSpeed="max" departPos="random" />
  <trip id="76" depart="15.00" from="B2B3" to="C0B0" type="td_0" departLane="best" departSpeed="max" departPos="random" />
  <trip id="79" depart="15.00" from="E60" to="E59.909" type="td_0" departLane="best" departSpeed="max" departPos="random" />
  <trip id="84" depart="16.00" from="-E33" to="D3top3" type="td_0" departLane="best" departSpeed="max" departPos="random" />
  <trip id="82" depart="16.00" from="-E31" to="E60" type="td_0" departLane="best" departSpeed="max" departPos="random" />
  <trip id="86" depart="16.00" from="C0C1" to="-E65" type="td_0" departLane="best" departSpeed="max" departPos="random" />
  <trip id="83" depart="16.00" from="-E4" to="B2C2" type="td_0" departLane="best" departSpeed="max" departPos="random" />
  <trip id="85" depart="16.00" from="E11" to="-E19" type="td_0" departLane="best" departSpeed="max" departPos="random" />
  <trip id="87" depart="17.00" from="A2B2" to="E40" type="td_0" departLane="best" departSpeed="max" departPos="random" />
  <trip id="92" depart="17.00" from="bottom3D0" to="bottom3D0" type="td_0" departLane="best" departSpeed="max" departPos="random" />
  <trip id="89" depart="17.00" from="-E32" to="B1B2" type="td_0" departLane="best" departSpeed="max" departPos="random" />
  <trip id="98" depart="18.00" from="E40" to="-E38" type="td_0" departLane="best" departSpeed="max" departPos="random" />
  <trip id="96" depart="18.00" from="A1A2" to="E11.252" type="td_0" departLane="best" departSpeed="max" departPos="random" />
  <trip id="94" depart="18.00" from="E26" to="E4" type="td_0" departLane="best" departSpeed="max" departPos="random" />
  <trip id="95" depart="18.00" from="B0bottom1" to="-E5" type="td_0" departLane="best" departSpeed="max" departPos="random" />
  <trip id="100" depart="19.00" from="-E24" to="E14" type="td_0" departLane="best" departSpeed="max" departPos="random" />
  <trip id="104" depart="19.00" from="C0D0" to="A3B3" type="td_0" departLane="best" departSpeed="max" departPos="random" />
  <trip id="106" depart="20.00" from="-E35" to="-E23" type="td_0" departLane="best" departSpeed="max" departPos="random" />
  <trip id="108" depart="20.00" from="-E30" to="C2D2" type="td_0" departLane="best" departSpeed="max" departPos="random" />
  <trip id="107" depart="20.00" from="-E12" to="E14" type="td_0" departLane="best" departSpeed="max" departPos="random" />
  <trip id="113" depart="21.00" from="B0B1" to="-E42" type="td_0" departLane="best" departSpeed="max" departPos="random" />
  <trip id="116" depart="22.00" from="left2A2" to="E15.181" type="td_0" departLane="best" departSpeed="max" departPos="random" />
  <trip id="120" depart="22.00" from="D0D1" to="E36" type="td_0" departLane="best" departSpeed="max" departPos="random" />
  <trip id="117" depart="22.00" from="C0D0" to="E30" type="td_0" departLane="best" departSpeed="max" departPos="random" />
  <trip id="118" depart="22.00" from="E47" to="-E37.245" type="td_0" departLane="best" departSpeed="max" departPos="random" />
  <trip id="121" depart="22.00" from="E64" to="bottom3D0" type="td_0" departLane="best" departSpeed="max" departPos="random" />
  <trip id="125" depart="23.00" from="D1C1" to="A3top0" type="td_0" departLane="best" departSpeed="max" departPos="random" />
  <trip id="128" depart="23.00" from="B3top1" to="-E48" type="td_0" departLane="best" departSpeed="max" departPos="random" />
  <trip id="133" depart="24.00" from="E24" to="A0B0" type="td_0" departLane="best" departSpeed="max" departPos="random" />
  <trip id="129" depart="24.00" from="E26" to="C2B2" type="td_0" departLane="best" departSpeed="max" departPos="random" />
  <trip id="138" depart="25.00" from="C1C2" to="C2B2" type="td_0" departLane="best" departSpeed="max" departPos="random" />
  <trip id="137" depart="25.00" from="A1A0" to="E7.369" type="td_0" departLane="best" departSpeed="max" departPos="random" />
  <trip id="136" depart="25.00" from="-E33" to="E15" type="td_0" departLane="best" departSpeed="max" departPos="random" />
  <trip id="134" depart="25.00" from="B2B1" to="-E56" type="td_0" departLane="best" departSpeed="max" departPos="random" />
  <trip id="145" depart="26.00" from="-E6" to="-E39" type="td_0" departLane="best" departSpeed="max" departPos="random" />
  <trip id="144" depart="26.00" from="-E56.635" to="-E25.370" type="td_0" departLane="best" departSpeed="max" departPos="random" />
  <trip id="146" depart="26.00" from="A0bottom0" to="-E22" type="td_0" departLane="best" departSpeed="max" departPos="random" />
  <trip id="152" depart="27.00" from="-E29" to="-E39" type="td_0" departLane="best" departSpeed="max" departPos="random" />
  <trip id="149" depart="27.00" from="C3C2" to="-E53" type="td_0" departLane="best" departSpeed="max" departPos="random" />
  <trip id="158" depart="28.00" from="-E18" to="E59" type="td_0" departLane="best" departSpeed="max" departPos="random" />
  <trip id="159" depart="28.00" from="top1B3" to="B1B2" type="td_0" departLane="best" departSpeed="max" departPos="random" />
  <trip id="162" depart="29.00" from="-E25" to="-E33" type="td_0" departLane="best" departSpeed="max" departPos="random" />
  <trip id="168" depart="30.00" from="E34" to="C3C2" type="td_0" departLane="best" departSpeed="max" departPos="random" />
  <trip id="172" depart="31.00" from="A2B2" to="-E37.245" type="td_0" departLane="best" departSpeed="max" departPos="random" />
  <trip id="169" depart="31.00" from="-E32" to="E8" type="td_0" departLane="best" departSpeed="max" departPos="random" />
  <trip id="170" depart="31.00" from="B1A1" to="-E10" type="td_0" departLane="best" departSpeed="max" departPos="random" />
  <trip id="173" depart="31.00" from="A1B1" to="-E25.370" type="td_0" departLane="best" departSpeed="max" departPos="random" />
  <trip id="175" depart="31.00" from="D1C1" to="C3D3" type="td_0" departLane="best" departSpeed="max" departPos="random" />
  <trip id="176" depart="31.00" from="-E54" to="right2D2" type="td_0" departLane="best" departSpeed="max" departPos="random" />
  <trip id="181" depart="32.00" from="E32" to="top1B3" type="td_0" departLane="best" departSpeed="max" departPos="random" />
  <trip id="182" depart="33.00" from="E33" to="A3B3" type="td_0" departLane="best" departSpeed="max" departPos="random" />
  <trip id="187" depart="33.00" from="E27" to="E24" type="td_0" departLane="best" departSpeed="max" departPos="random" />
  <trip id="185" depart="33.00" from="E21" to="E35" type="td_0" departLane="best" departSpeed="max" departPos="random" />
  <trip id="190" depart="34.00" from="E8" to="E53" type="td_0" departLane="best" departSpeed="max" departPos="random" />
  <trip id="193" depart="35.00" from="D0D1" to="E57" type="td_0" departLane="best" departSpeed="max" departPos="random" />
  <trip id="194" depart="35.00" from="-E36" to="-E7.369" type="td_0" departLane="best" departSpeed="max" departPos="random" />
  <trip id="195" depart="35.00" from="B1B2" to="E4" type="td_0" departLane="best" departSpeed="max" departPos="random" />
  <trip id="200" depart="36.00" from="E17" to="E54" type="td_0" departLane="best" departSpeed="max" departPos="random" />
  <trip id="202" depart="36.00" from="C2B2" to="E50" type="td_0" departLane="best" departSpeed="max" departPos="random" />
  <trip id="199" depart="36.00" from="-E35" to="-E26" type="td_0" departLane="best" departSpeed="max" departPos="random" />
  <trip id="209" depart="37.00" from="A1B1" to="D1D0" type="td_0" departLane="best" departSpeed="max" departPos="random" />
  <trip id="208" depart="37.00" from="C3D3" to="B3top1" type="td_0" departLane="best" departSpeed="max" departPos="random" />
  <trip id="206" depart="37.00" from="E37.245" to="E24" type="td_0" departLane="best" departSpeed="max" departPos="random" />
  <trip id="203" depart="37.00" from="left0A0" to="right0D0" type="td_0" departLane="best" departSpeed="max" departPos="random" />
  <trip id="212" depart="38.00" from="-E27" to="-E60" type="td_0" departLane="best" departSpeed="max" departPos="random" />
  <trip id="211" depart="38.00" from="A1B1" to="-E27" type="td_0" departLane="best" departSpeed="max" departPos="random" />
  <trip id="216" depart="39.00" from="E38" to="top0A3" type="td_0" departLane="best" departSpeed="max" departPos="random" />
  <trip id="214" depart="39.00" from="A3top0" to="E13" type="td_0" departLane="best" departSpeed="max" departPos="random" />
  <trip id="217" depart="39.00" from="E56.635" to="-E53" type="td_0" departLane="best" departSpeed="max" departPos="random" />
  <trip id="223" depart="40.00" from="-E56" to="B1B0" type="td_0" departLane="best" departSpeed="max" departPos="random" />
  <trip id="221" depart="40.00" from="-E43" to="E53" type="td_0" departLane="best" departSpeed="max" departPos="random" />
  <trip id="225" depart="40.00" from="D0right0" to="E36" type="td_0" departLane="best" departSpeed="max" departPos="random" />
  <trip id="230" depart="41.00" from="B1A1" to="E13" type="td_0" departLane="best" departSpeed="max" departPos="random" />
  <trip id="229" depart="41.00" from="-E28" to="-E30" type="td_0" departLane="best" departSpeed="max" departPos="random" />
  <trip id="231" depart="41.00" from="C1C2" to="E16" type="td_0" departLane="best" departSpeed="max" departPos="random" />
  <trip id="227" depart="41.00" from="B1B0" to="-E30" type="td_0" departLane="best" departSpeed="max" departPos="random" />
  <trip id="235" depart="42.00" from="-E63" to="E23" type="td_0" departLane="best" departSpeed="max" departPos="random" />
  <trip id="232" depart="42.00" from="top3D3" to="-E60" type="td_0" departLane="best" departSpeed="max" departPos="random" />
  <trip id="237" depart="42.00" from="E59" to="E24" type="td_0" departLane="best" departSpeed="max" departPos="random" />
  <trip id="241" depart="43.00" from="B3C3" to="D3top3" type="td_0" departLane="best" departSpeed="max" departPos="random" />
  <trip id="245" depart="43.00" from="E4" to="A2A3" type="td_0" departLane="best" departSpeed="max" departPos="random" />
  <trip id="251" depart="44.00" from="E8" to="-E23" type="td_0" departLane="best" departSpeed="max" departPos="random" />
  <trip id="246" depart="44.00" from="D1C1" to="C2C3" type="td_0" departLane="best" departSpeed="max" departPos="random" />
  <trip id="249" depart="44.00" from="B1A1" to="B2A2" type="td_0" departLane="best" departSpeed="max" departPos="random" />
  <trip id="256" depart="45.00" from="E26" to="E62" type="td_0" departLane="best" departSpeed="max" departPos="random" />
  <trip id="253" depart="45.00" from="-E64" to="B0B1" type="td_0" departLane="best" departSpeed="max" departPos="random" />
  <trip id="257" depart="45.00" from="E48" to="E24" type="td_0" departLane="best" departSpeed="max" departPos="random" />
  <trip id="261" depart="46.00" from="D1right1" to="C3top2" type="td_0" departLane="best" departSpeed="max" departPos="random" />
  <trip id="260" depart="46.00" from="E26" to="C3top2" type="td_0" departLane="best" departSpeed="max" departPos="random" />
  <trip id="265" depart="47.00" from="C0D0" to="E11.252" type="td_0" departLane="best" departSpeed="max" departPos="random" />
  <trip id="264" depart="47.00" from="E37.245" to="left1A1" type="td_0" departLane="best" departSpeed="max" departPos="random" />
  <trip id="267" depart="48.00" from="C0C1" to="E49" type="td_0" departLane="best" departSpeed="max" departPos="random" />
  <trip id="268" depart="48.00" from="-E38" to="-E52" type="td_0" departLane="best" departSpeed="max" departPos="random" />
  <trip id="266" depart="48.00" from="C0C1" to="C1C0" type="td_0" departLane="best" departSpeed="max" departPos="random" />
  <trip id="276" depart="49.00" from="E15" to="B2B1" type="td_0" departLane="best" departSpeed="max" departPos="random" />
  <trip id="271" depart="49.00" from="E41" to="-E22" type="td_0" departLane="best" departSpeed="max" departPos="random" />
  <trip id="277" depart="50.00" from="E31" to="E42" type="td_0" departLane="best" departSpeed="max" departPos="random" />
  <trip id="284" depart="51.00" from="-E27" to="E26" type="td_0" departLane="best" departSpeed="max" departPos="random" />
  <trip id="287" depart="52.00" from="B1B0" to="-E11.252" type="td_0" departLane="best" departSpeed="max" departPos="random" />
  <trip id="293" depart="53.00" from="B0A0" to="E28" type="td_0" departLane="best" departSpeed="max" departPos="random" />
  <trip id="291" depart="53.00" from="E43" to="B3A3" type="td_0" departLane="best" departSpeed="max" departPos="random" />
  <trip id="289" depart="53.00" from="-E65" to="-E16" type="td_0" departLane="best" departSpeed="max" departPos="random" />
  <trip id="299" depart="54.00" from="C3D3" to="D3D2" type="td_0" departLane="best" departSpeed="max" departPos="random" />
  <trip id="297" depart="54.00" from="E61" to="-E31" type="td_0" departLane="best" departSpeed="max" departPos="random" />
  <trip id="305" depart="55.00" from="-E48" to="A3left3" type="td_0" departLane="best" departSpeed="max" departPos="random" />
  <trip id="303" depart="55.00" from="B3top1" to="C1B1" type="td_0" departLane="best" departSpeed="max" departPos="random" />
  <trip id="304" depart="55.00" from="-E37.245" to="A2B2" type="td_0" departLane="best" departSpeed="max" departPos="random" />
  <trip id="306" depart="55.00" from="-E56" to="-E21" type="td_0" departLane="best" departSpeed="max" departPos="random" />
  <trip id="301" depart="55.00" from="B3top1" to="D3top3" type="td_0" departLane="best" departSpeed="max" departPos="random" />
  <trip id="307" depart="56.00" from="E19" to="A0B0" type="td_0" departLane="best" departSpeed="max" departPos="random" />
  <trip id="309" depart="56.00" from="A3B3" to="D3top3" type="td_0" departLane="best" departSpeed="max" departPos="random" />
  <trip id="312" depart="56.00" from="-E55" to="E59.909" type="td_0" departLane="best" departSpeed="max" departPos="random" />
  <trip id="308" depart="56.00" from="top1B3" to="A2A3" type="td_0" departLane="best" departSpeed="max" departPos="random" />
  <trip id="311" depart="56.00" from="bottom3D0" to="B0C0" type="td_0" departLane="best" departSpeed="max" departPos="random" />
  <trip id="310" depart="56.00" from="-E59.909" to="E47" type="td_0" departLane="best" departSpeed="max" departPos="random" />
  <trip id="316" depart="57.00" from="E56" to="-E64" type="td_0" departLane="best" departSpeed="max" departPos="random" />
  <trip id="314" depart="57.00" from="-E40" to="E49" type="td_0" departLane="best" departSpeed="max" departPos="random" />
  <trip id="313" depart="57.00" from="E17" to="D0D1" type="td_0" departLane="best" departSpeed="max" departPos="random" />
  <trip id="317" depart="57.00" from="-E62" to="E51" type="td_0" departLane="best" departSpeed="max" departPos="random" />
  <trip id="323" depart="59.00" from="right0D0" to="-E38" type="td_0" departLane="best" departSpeed="max" departPos="random" />
  <trip id="324" depart="59.00" from="A2left2" to="D1D2" type="td_0" departLane="best" departSpeed="max" departPos="random" />
  <trip id="322" depart="59.00" from="B1C1" to="E64" type="td_0" departLane="best" departSpeed="max" departPos="random" />
  <trip id="326" depart="59.00" from="C2B2" to="right1D1" type="td_0" departLane="best" departSpeed="max" departPos="random" />
  <trip id="321" depart="59.00" from="E36" to="-E10" type="td_0" departLane="best" departSpeed="max" departPos="random" />
  <trip id="328" depart="60.00" from="B3B2" to="-E4" type="td_0" departLane="best" departSpeed="max" departPos="random" />
  <trip id="332" depart="61.00" from="-E7" to="D3D2" type="td_0" departLane="best" departSpeed="max" departPos="random" />
  <trip id="331" depart="61.00" from="A0bottom0" to="E5" type="td_0" departLane="best" departSpeed="max" departPos="random" />
  <trip id="334" depart="61.00" from="-E13" to="E38" type="td_0" departLane="best" departSpeed="max" departPos="random" />
  <trip id="336" depart="61.00" from="-E28" to="E11.252" type="td_0" departLane="best" departSpeed="max" departPos="random" />
  <trip id="339" depart="62.00" from="-E60" to="D3C3" type="td_0" departLane="best" departSpeed="max" departPos="random" />
  <trip id="340" depart="62.00" from="bottom2C0" to="E24" type="td_0" departLane="best" departSpeed="max" departPos="random" />
  <trip id="345" depart="63.00" from="E7" to="E63" type="td_0" departLane="best" departSpeed="max" departPos="random" />
  <trip id="349" depart="63.00" from="E10" to="E26" type="td_0" departLane="best" departSpeed="max" departPos="random" />
  <trip id="352" depart="64.00" from="E4" to="E53" type="td_0" departLane="best" departSpeed="max" departPos="random" />
  <trip id="351" depart="64.00" from="-E47" to="E15.181" type="td_0" departLane="best" departSpeed="max" departPos="random" />
  <trip id="359" depart="65.00" from="D2D1" to="E44" type="td_0" departLane="best" departSpeed="max" departPos="random" />
  <trip id="355" depart="65.00" from="B0B1" to="E15" type="td_0" departLane="best" departSpeed="max" departPos="random" />
  <trip id="361" depart="65.00" from="D0bottom3" to="E37" type="td_0" departLane="best" departSpeed="max" departPos="random" />
  <trip id="357" depart="65.00" from="E58" to="E53" type="td_0" departLane="best" departSpeed="max" departPos="random" />
  <trip id="367" depart="66.00" from="D2right2" to="-E36" type="td_0" departLane="best" departSpeed="max" departPos="random" />
  <trip id="362" depart="66.00" from="B2B1" to="E14" type="td_0" departLane="best" departSpeed="max" departPos="random" />
  <trip id="368" depart="66.00" from="top1B3" to="C2C3" type="td_0" departLane="best" departSpeed="max" departPos="random" />
  <trip id="369" depart="66.00" from="D1right1" to="E48" type="td_0" departLane="best" departSpeed="max" departPos="random" />
  <trip id="364" depart="66.00" from="-E37.245" to="E60" type="td_0" departLane="best" departSpeed="max" departPos="random" />
  <trip id="374" depart="67.00" from="B0A0" to="E25" type="td_0" departLane="best" departSpeed="max" departPos="random" />
  <trip id="371" depart="67.00" from="B1B2" to="D0bottom3" type="td_0" departLane="best" departSpeed="max" departPos="random" />
  <trip id="373" depart="67.00" from="-E60" to="-E58" type="td_0" departLane="best" departSpeed="max" departPos="random" />
  <trip id="372" depart="67.00" from="D2D1" to="A2A1" type="td_0" departLane="best" departSpeed="max" departPos="random" />
  <trip id="376" depart="68.00" from="E10" to="B1A1" type="td_0" departLane="best" departSpeed="max" departPos="random" />
  <trip id="378" depart="68.00" from="D2D3" to="top3D3" type="td_0" departLane="best" departSpeed="max" departPos="random" />
  <trip id="383" depart="68.00" from="-E64" to="B3C3" type="td_0" departLane="best" departSpeed="max" departPos="random" />
  <trip id="381" depart="68.00" from="-E61" to="A2A3" type="td_0" departLane="best" departSpeed="max" departPos="random" />
  <trip id="388" depart="69.00" from="A1left1" to="B2B1" type="td_0" departLane="best" departSpeed="max" departPos="random" />
  <trip id="389" depart="69.00" from="-E26" to="-E48" type="td_0" departLane="best" departSpeed="max" departPos="random" />
  <trip id="395" depart="70.00" from="A3B3" to="B2B3" type="td_0" departLane="best" departSpeed="max" departPos="random" />
  <trip id="391" depart="70.00" from="D2right2" to="-E37" type="td_0" departLane="best" departSpeed="max" departPos="random" />
  <trip id="392" depart="70.00" from="-E8" to="-E7.369" type="td_0" departLane="best" departSpeed="max" departPos="random" />
  <trip id="394" depart="70.00" from="E30" to="-E60" type="td_0" departLane="best" departSpeed="max" departPos="random" />
  <trip id="396" depart="71.00" from="D0bottom3" to="left0A0" type="td_0" departLane="best" departSpeed="max" departPos="random" />
  <trip id="399" depart="71.00" from="-E57" to="E62" type="td_0" departLane="best" departSpeed="max" departPos="random" />
  <trip id="401" depart="72.00" from="D1C1" to="E26" type="td_0" departLane="best" departSpeed="max" departPos="random" />
  <trip id="402" depart="72.00" from="-E48" to="right3D3" type="td_0" departLane="best" departSpeed="max" departPos="random" />
  <trip id="404" depart="73.00" from="E40" to="top2C3" type="td_0" departLane="best" departSpeed="max" departPos="random" />
  <trip id="408" depart="73.00" from="A2A1" to="D2C2" type="td_0" departLane="best" departSpeed="max" departPos="random" />
  <trip id="406" depart="73.00" from="A0A1" to="-E16" type="td_0" departLane="best" departSpeed="max" departPos="random" />
  <trip id="414" depart="75.00" from="D3top3" to="E27" type="td_0" departLane="best" departSpeed="max" departPos="random" />
  <trip id="415" depart="75.00" from="E21" to="A0bottom0" type="td_0" departLane="best" departSpeed="max" departPos="random" />
  <trip id="417" depart="75.00" from="D3right3" to="-E55" type="td_0" departLane="best" departSpeed="max" departPos="random" />
  <trip id="429" depart="77.00" from="B0A0" to="-E26" type="td_0" departLane="best" departSpeed="max" departPos="random" />
  <trip id="427" depart="77.00" from="E22" to="C1D1" type="td_0" departLane="best" departSpeed="max" departPos="random" />
  <trip id="425" depart="77.00" from="top1B3" to="top0A3" type="td_0" departLane="best" departSpeed="max" departPos="random" />
  <trip id="431" depart="78.00" from="B1C1" to="-E29" type="td_0" departLane="best" departSpeed="max" departPos="random" />
  <trip id="439" depart="79.00" from="-E18" to="E65" type="td_0" departLane="best" departSpeed="max" departPos="random" />
  <trip id="438" depart="79.00" from="A3left3" to="E61" type="td_0" departLane="best" departSpeed="max" departPos="random" />
  <trip id="440" depart="80.00" from="-E46" to="E25.370" type="td_0" departLane="best" departSpeed="max" departPos="random" />
  <trip id="445" depart="80.00" from="-E11" to="-E11" type="td_0" departLane="best" departSpeed="max" departPos="random" />
  <trip id="448" depart="81.00" from="C1B1" to="bottom3D0" type="td_0" departLane="best" departSpeed="max" departPos="random" />
  <trip id="449" depart="81.00" from="E13" to="B0C0" type="td_0" departLane="best" departSpeed="max" departPos="random" />
  <trip id="447" depart="81.00" from="E37" to="-E10" type="td_0" departLane="best" departSpeed="max" departPos="random" />
  <trip id="456" depart="82.00" from="-E15.181" to="-E65" type="td_0" departLane="best" departSpeed="max" departPos="random" />
  <trip id="451" depart="82.00" from="top1B3" to="-E37.245" type="td_0" departLane="best" departSpeed="max" departPos="random" />
  <trip id="453" depart="82.00" from="-E48" to="E27" type="td_0" departLane="best" departSpeed="max" departPos="random" />
  <trip id="458" depart="83.00" from="E4" to="E25" type="td_0" departLane="best" departSpeed="max" departPos="random" />
  <trip id="463" depart="84.00" from="E31" to="E56" type="td_0" departLane="best" departSpeed="max" departPos="random" />
  <trip id="461" depart="84.00" from="E16" to="E18" type="td_0" departLane="best" departSpeed="max" departPos="random" />
  <trip id="468" depart="85.00" from="E10" to="E59" type="td_0" departLane="best" departSpeed="max" departPos="random" />
  <trip id="466" depart="85.00" from="-E35" to="B2B3" type="td_0" departLane="best" departSpeed="max" departPos="random" />
  <trip id="474" depart="86.00" from="B0A0" to="-E60" type="td_0" departLane="best" departSpeed="max" departPos="random" />
  <trip id="472" depart="86.00" from="B3top1" to="E45" type="td_0" departLane="best" departSpeed="max" departPos="random" />
  <trip id="475" depart="86.00" from="-E8" to="E27" type="td_0" departLane="best" departSpeed="max" departPos="random" />
  <trip id="476" depart="86.00" from="E30" to="E59.909" type="td_0" departLane="best" departSpeed="max" departPos="random" />
  <trip id="471" depart="86.00" from="C3D3" to="E58" type="td_0" departLane="best" departSpeed="max" departPos="random" />
  <trip id="473" depart="86.00" from="B1B2" to="E62" type="td_0" departLane="best" departSpeed="max" departPos="random" />
  <trip id="483" depart="87.00" from="D0right0" to="D0C0" type="td_0" departLane="best" departSpeed="max" departPos="random" />
  <trip id="482" depart="87.00" from="-E53" to="A1A2" type="td_0" departLane="best" departSpeed="max" departPos="random" />
  <trip id="477" depart="87.00" from="-E59" to="B1A1" type="td_0" departLane="best" departSpeed="max" departPos="random" />
  <trip id="479" depart="87.00" from="E11.252" to="-E45" type="td_0" departLane="best" departSpeed="max" departPos="random" />
  <trip id="486" depart="88.00" from="-E60" to="C1C0" type="td_0" departLane="best" departSpeed="max" departPos="random" />
  <trip id="487" depart="88.00" from="A1A2" to="E45" type="td_0" departLane="best" departSpeed="max" departPos="random" />
  <trip id="495" depart="90.00" from="-E63" to="E37.245" type="td_0" departLane="best" departSpeed="max" departPos="random" />
  <trip id="502" depart="91.00" from="right3D3" to="E25" type="td_0" departLane="best" departSpeed="max" departPos="random" />
  <trip id="500" depart="91.00" from="-E59.909" to="E43" type="td_0" departLane="best" departSpeed="max" departPos="random" />
  <trip id="504" depart="92.00" from="left0A0" to="-E58" type="td_0" departLane="best" departSpeed="max" departPos="random" />
  <trip id="512" depart="93.00" from="C3B3" to="E40" type="td_0" departLane="best" departSpeed="max" departPos="random" />
  <trip id="515" depart="93.00" from="E65" to="E7.369" type="td_0" departLane="best" departSpeed="max" departPos="random" />
  <trip id="513" depart="93.00" from="-E25" to="-E48" type="td_0" departLane="best" departSpeed="max" departPos="random" />
  <trip id="511" depart="93.00" from="E38" to="D3D2" type="td_0" departLane="best" departSpeed="max" departPos="random" />