<?xml version='1.0' encoding='utf-8'?>
<routes xmlns:xsi="http://www.w3.org/2001/XMLSchema-instance" xsi:noNamespaceSchemaLocation="http://sumo.dlr.de/xsd/routes_file.xsd">
  <trip id="0" depart="0.00" from="-E41" to="right0D0" type="td_0" departLane="best" departSpeed="max" departPos="random" />
  <trip id="1" depart="0.00" from="E38" to="-E16" type="td_0" departLane="best" departSpeed="max" departPos="random" />
  <trip id="2" depart="0.00" from="right1D1" to="E5" type="td_0" departLane="best" departSpeed="max" departPos="random" />
  <trip id="3" depart="0.00" from="B2C2" to="B3C3" type="td_0" departLane="best" departSpeed="max" departPos="random" />
  <trip id="4" depart="0.00" from="-E27" to="A2A1" type="td_0" departLane="best" departSpeed="max" departPos="random" />
  <trip id="5" depart="0.00" from="-E43" to="E58" type="td_0" departLane="best" departSpeed="max" departPos="random" />
  <trip id="6" depart="0.00" from="-E60" to="B2B1" type="td_0" departLane="best" departSpeed="max" departPos="random" />
  <trip id="7" depart="0.00" from="E64" to="D0C0" type="td_0" departLane="best" departSpeed="max" departPos="random" />
  <trip id="xh_4211_2" depart="0.50" from="right1D1" to="E5" type="td_0" departLane="best" departSpeed="max" departPos="random" />
  <trip id="xh_5300_4" depart="0.50" from="-E27" to="A2A1" type="td_0" departLane="best" departSpeed="max" departPos="random" />
  <trip id="xh_5737_1" depart="0.50" from="E38" to="-E16" type="td_0" departLane="best" departSpeed="max" departPos="random" />
  <trip id="xh_6167_3" depart="0.50" from="B2C2" to="B3C3" type="td_0" departLane="best" departSpeed="max" departPos="random" />
  <trip id="8" depart="1.00" from="C3top2" to="C2C1" type="td_0" departLane="best" departSpeed="max" departPos="random" />
  <trip id="9" depart="1.00" from="-E33" to="D1C1" type="td_0" departLane="best" departSpeed="max" departPos="random" />
  <trip id="10" depart="1.00" from="C1B1" to="E47" type="td_0" departLane="best" departSpeed="max" departPos="random" />
  <trip id="11" depart="1.00" from="A3B3" to="E37" type="td_0" departLane="best" departSpeed="max" departPos="random" />
  <trip id="xh_6002_11" depart="1.50" from="A3B3" to="E37" type="td_0" departLane="best" departSpeed="max" departPos="random" />
  <trip id="xh_9884_8" depart="1.50" from="C3top2" to="C2C1" type="td_0" departLane="best" departSpeed="max" departPos="random" />
  <trip id="12" depart="2.00" from="C2B2" to="-E23" type="td_0" departLane="best" departSpeed="max" departPos="random" />
  <trip id="13" depart="2.00" from="C1D1" to="E28" type="td_0" departLane="best" departSpeed="max" departPos="random" />
  <trip id="14" depart="2.00" from="B2C2" to="C2B2" type="td_0" departLane="best" departSpeed="max" departPos="random" />
  <trip id="15" depart="2.00" from="A3A2" to="-E41" type="td_0" departLane="best" departSpeed="max" departPos="random" />
  <trip id="xh_472_13" depart="2.50" from="C1D1" to="E28" type="td_0" departLane="best" departSpeed="max" departPos="random" />
  <trip id="xh_7599_14" depart="2.50" from="B2C2" to="C2B2" type="td_0" departLane="best" departSpeed="max" departPos="random" />
  <trip id="16" depart="3.00" from="-E63" to="left2A2" type="td_0" departLane="best" departSpeed="max" departPos="random" />
  <trip id="17" depart="3.00" from="-E37.245" to="C2B2" type="td_0" departLane="best" departSpeed="max" departPos="random" />
  <trip id="18" depart="3.00" from="D2C2" to="-E22" type="td_0" departLane="best" departSpeed="max" departPos="random" />
  <trip id="19" depart="3.00" from="-E30" to="-E52" type="td_0" departLane="best" departSpeed="max" departPos="random" />
  <trip id="20" depart="3.00" from="right1D1" to="-E56.635" type="td_0" departLane="best" departSpeed="max" departPos="random" />
  <trip id="xh_149_18" depart="3.50" from="D2C2" to="-E22" type="td_0" departLane="best" departSpeed="max" departPos="random" />
  <trip id="xh_5122_19" depart="3.50" from="-E30" to="-E52" type="td_0" departLane="best" departSpeed="max" departPos="random" />
  <trip id="xh_9880_16" depart="3.50" from="-E63" to="left2A2" type="td_0" departLane="best" departSpeed="max" departPos="random" />
  <trip id="21" depart="4.00" from="-E15" to="-E42" type="td_0" departLane="best" departSpeed="max" departPos="random" />
  <trip id="22" depart="4.00" from="-E4" to="E56.635" type="td_0" departLane="best" departSpeed="max" departPos="random" />
  <trip id="23" depart="4.00" from="B2C2" to="E40" type="td_0" departLane="best" departSpeed="max" departPos="random" />
  <trip id="24" depart="4.00" from="-E18" to="-E27" type="td_0" departLane="best" departSpeed="max" departPos="random" />
  <trip id="25" depart="4.00" from="-E25.370" to="D1C1" type="td_0" departLane="best" departSpeed="max" departPos="random" />
  <trip id="26" depart="4.00" from="A1A0" to="-E65" type="td_0" departLane="best" departSpeed="max" departPos="random" />
  <trip id="27" depart="4.00" from="E34" to="left2A2" type="td_0" departLane="best" departSpeed="max" departPos="random" />
  <trip id="xh_2829_22" depart="4.50" from="-E4" to="E56.635" type="td_0" departLane="best" departSpeed="max" departPos="random" />
  <trip id="xh_6853_25" depart="4.50" from="-E25.370" to="D1C1" type="td_0" departLane="best" departSpeed="max" departPos="random" />
  <trip id="28" depart="5.00" from="D3C3" to="E37" type="td_0" departLane="best" departSpeed="max" departPos="random" />
  <trip id="29" depart="5.00" from="-E51" to="C0D0" type="td_0" departLane="best" departSpeed="max" departPos="random" />
  <trip id="30" depart="5.00" from="C0D0" to="B0bottom1" type="td_0" departLane="best" departSpeed="max" departPos="random" />
  <trip id="31" depart="5.00" from="-E24" to="C1B1" type="td_0" departLane="best" departSpeed="max" departPos="random" />
  <trip id="32" depart="6.00" from="-E59.909" to="-E39" type="td_0" departLane="best" departSpeed="max" departPos="random" />
  <trip id="33" depart="6.00" from="E37.245" to="E21" type="td_0" departLane="best" departSpeed="max" departPos="random" />
  <trip id="34" depart="6.00" from="left3A3" to="left2A2" type="td_0" departLane="best" departSpeed="max" departPos="random" />
  <trip id="35" depart="6.00" from="E21" to="-E20" type="td_0" departLane="best" departSpeed="max" departPos="random" />
  <trip id="36" depart="6.00" from="C1C0" to="top3D3" type="td_0" departLane="best" departSpeed="max" departPos="random" />
  <trip id="37" depart="6.00" from="-E56.635" to="E25" type="td_0" departLane="best" departSpeed="max" departPos="random" />
  <trip id="38" depart="6.00" from="-E57" to="E5" type="td_0" departLane="best" departSpeed="max" departPos="random" />
  <trip id="39" depart="6.00" from="E36" to="B3B2" type="td_0" departLane="best" departSpeed="max" departPos="random" />
  <trip id="xh_896_37" depart="6.50" from="-E56.635" to="E25" type="td_0" departLane="best" departSpeed="max" departPos="random" />
  <trip id="xh_2849_35" depart="6.50" from="E21" to="-E20" type="td_0" departLane="best" departSpeed="max" departPos="random" />
  <trip id="xh_9724_34" depart="6.50" from="left3A3" to="left2A2" type="td_0" departLane="best" departSpeed="max" departPos="random" />
  <trip id="40" depart="7.00" from="E65" to="B3C3" type="td_0" departLane="best" departSpeed="max" departPos="random" />
  <trip id="41" depart="7.00" from="D0bottom3" to="B3C3" type="td_0" departLane="best" departSpeed="max" departPos="random" />
  <trip id="42" depart="7.00" from="E37" to="E36" type="td_0" departLane="best" departSpeed="max" departPos="random" />
  <trip id="43" depart="7.00" from="-E37.245" to="-E29" type="td_0" departLane="best" departSpeed="max" departPos="random" />
  <trip id="44" depart="7.00" from="left1A1" to="-E6" type="td_0" departLane="best" departSpeed="max" departPos="random" />
  <trip id="45" depart="7.00" from="-E41.262" to="E13" type="td_0" departLane="best" departSpeed="max" departPos="random" />
  <trip id="xh_3288_41" depart="7.50" from="D0bottom3" to="B3C3" type="td_0" departLane="best" departSpeed="max" departPos="random" />
  <trip id="xh_3998_44" depart="7.50" from="left1A1" to="-E6" type="td_0" departLane="best" departSpeed="max" departPos="random" />
  <trip id="xh_8300_40" depart="7.50" from="E65" to="B3C3" type="td_0" departLane="best" departSpeed="max" departPos="random" />
  <trip id="46" depart="8.00" from="-E37.245" to="C1D1" type="td_0" departLane="best" departSpeed="max" departPos="random" />
  <trip id="47" depart="8.00" from="E61" to="B1B2" type="td_0" departLane="best" departSpeed="max" departPos="random" />
  <trip id="48" depart="8.00" from="E11.252" to="B1A1" type="td_0" departLane="best" departSpeed="max" departPos="random" />
  <trip id="xh_3050_47" depart="8.50" from="E61" to="B1B2" type="td_0" departLane="best" departSpeed="max" departPos="random" />
  <trip id="49" depart="9.00" from="-E30" to="C2C1" type="td_0" departLane="best" departSpeed="max" departPos="random" />
  <trip id="50" depart="9.00" from="-E37" to="-E16" type="td_0" departLane="best" departSpeed="max" departPos="random" />
  <trip id="51" depart="9.00" from="-E62" to="-E27" type="td_0" departLane="best" departSpeed="max" departPos="random" />
  <trip id="52" depart="9.00" from="A1A2" to="B1B0" type="td_0" departLane="best" departSpeed="max" departPos="random" />
  <trip id="53" depart="9.00" from="-E23" to="C2B2" type="td_0" departLane="best" departSpeed="max" departPos="random" />
  <trip id="xh_1629_51" depart="9.50" from="-E62" to="-E27" type="td_0" departLane="best" departSpeed="max" departPos="random" />
  <trip id="xh_8976_50" depart="9.50" from="-E37" to="-E16" type="td_0" departLane="best" departSpeed="max" departPos="random" />
  <trip id="54" depart="10.00" from="D0D1" to="C2C3" type="td_0" departLane="best" departSpeed="max" departPos="random" />
  <trip id="55" depart="10.00" from="right1D1" to="C0B0" type="td_0" departLane="best" departSpeed="max" departPos="random" />
  <trip id="56" depart="10.00" from="A2A3" to="E16" type="td_0" departLane="best" departSpeed="max" departPos="random" />
  <trip id="xh_445_55" depart="10.50" from="right1D1" to="C0B0" type="td_0" departLane="best" departSpeed="max" departPos="random" />
  <trip id="xh_7620_54" depart="10.50" from="D0D1" to="C2C3" type="td_0" departLane="best" departSpeed="max" departPos="random" />
  <trip id="57" depart="11.00" from="-E29" to="C0C1" type="td_0" departLane="best" departSpeed="max" departPos="random" />
  <trip id="58" depart="11.00" from="D1C1" to="D3top3" type="td_0" departLane="best" departSpeed="max" departPos="random" />
  <trip id="59" depart="11.00" from="E20" to="E4" type="td_0" departLane="best" departSpeed="max" departPos="random" />
  <trip id="60" depart="11.00" from="-E61" to="C3D3" type="td_0" departLane="best" departSpeed="max" departPos="random" />
  <trip id="61" depart="11.00" from="D1D0" to="-E4" type="td_0" departLane="best" departSpeed="max" departPos="random" />
  <trip id="62" depart="11.00" from="-E19" to="-E8" type="td_0" departLane="best" departSpeed="max" departPos="random" />
  <trip id="xh_3262_58" depart="11.50" from="D1C1" to="D3top3" type="td_0" departLane="best" departSpeed="max" departPos="random" />
  <trip id="xh_6724_57" depart="11.50" from="-E29" to="C0C1" type="td_0" departLane="best" departSpeed="max" departPos="random" />
  <trip id="xh_7609_60" depart="11.50" from="-E61" to="C3D3" type="td_0" departLane="best" departSpeed="max" departPos="random" />
  <trip id="63" depart="12.00" from="E56.635" to="left3A3" type="td_0" departLane="best" departSpeed="max" departPos="random" />
  <trip id="64" depart="13.00" from="-E13" to="E15.181" type="td_0" departLane="best" departSpeed="max" departPos="random" />
  <trip id="65" depart="13.00" from="B3top1" to="C1D1" type="td_0" departLane="best" departSpeed="max" departPos="random" />
  <trip id="66" depart="13.00" from="-E56" to="E63" type="td_0" departLane="best" departSpeed="max" departPos="random" />
  <trip id="67" depart="13.00" from="C2C1" to="bottom1B0" type="td_0" departLane="best" departSpeed="max" departPos="random" />
  <trip id="68" depart="13.00" from="A3left3" to="B2C2" type="td_0" departLane="best" departSpeed="max" departPos="random" />
  <trip id="69" depart="13.00" from="E7.369" to="E56" type="td_0" departLane="best" departSpeed="max" departPos="random" />
  <trip id="70" depart="13.00" from="B1C1" to="-E11" type="td_0" departLane="best" departSpeed="max" departPos="random" />
  <trip id="xh_258_70" depart="13.50" from="B1C1" to="-E11" type="td_0" departLane="best" departSpeed="max" departPos="random" />
  <trip id="xh_3858_67" depart="13.50" from="C2C1" to="bottom1B0" type="td_0" departLane="best" departSpeed="max" departPos="random" />
  <trip id="71" depart="14.00" from="B1B0" to="D3right3" type="td_0" departLane="best" departSpeed="max" departPos="random" />
  <trip id="72" depart="14.00" from="-E27" to="E17" type="td_0" departLane="best" departSpeed="max" departPos="random" />
  <trip id="73" depart="14.00" from="-E27" to="-E20" type="td_0" departLane="best" departSpeed="max" departPos="random" />
  <trip id="74" depart="14.00" from="-E55" to="-E64" type="td_0" departLane="best" departSpeed="max" departPos="random" />
  <trip id="75" depart="14.00" from="-E38" to="C0B0" type="td_0" departLane="best" departSpeed="max" departPos="random" />
  <trip id="xh_4308_71" depart="14.50" from="B1B0" to="D3right3" type="td_0" departLane="best" departSpeed="max" departPos="random" />
  <trip id="xh_7805_74" depart="14.50" from="-E55" to="-E64" type="td_0" departLane="best" departSpeed="max" departPos="random" />
  <trip id="76" depart="15.00" from="B2B3" to="C0B0" type="td_0" departLane="best" departSpeed="max" departPos="random" />
  <trip id="77" depart="15.00" from="E23" to="D1right1" type="td_0" departLane="best" departSpeed="max" departPos="random" />
  <trip id="78" depart="15.00" from="B2C2" to="A2left2" type="td_0" departLane="best" departSpeed="max" departPos="random" />
  <trip id="79" depart="15.00" from="E60" to="E59.909" type="td_0" departLane="best" departSpeed="max" departPos="random" />
  <trip id="80" depart="15.00" from="bottom0A0" to="C1C0" type="td_0" departLane="best" departSpeed="max" departPos="random" />
  <trip id="81" depart="15.00" from="-E36" to="-E37" type="td_0" departLane="best" departSpeed="max" departPos="random" />
  <trip id="xh_2803_81" depart="15.50" from="-E36" to="-E37" type="td_0" departLane="best" departSpeed="max" departPos="random" />
  <trip id="xh_3817_77" depart="15.50" from="E23" to="D1right1" type="td_0" departLane="best" departSpeed="max" departPos="random" />
  <trip id="xh_3842_76" depart="15.50" from="B2B3" to="C0B0" type="td_0" departLane="best" departSpeed="max" departPos="random" />
  <trip id="xh_4822_79" depart="15.50" from="E60" to="E59.909" type="td_0" departLane="best" departSpeed="max" departPos="random" />
  <trip id="82" depart="16.00" from="-E31" to="E60" type="td_0" departLane="best" departSpeed="max" departPos="random" />
  <trip id="83" depart="16.00" from="-E4" to="B2C2" type="td_0" departLane="best" departSpeed="max" departPos="random" />
  <trip id="84" depart="16.00" from="-E33" to="D3top3" type="td_0" departLane="best" departSpeed="max" departPos="random" />
  <trip id="85" depart="16.00" from="E11" to="-E19" type="td_0" departLane="best" departSpeed="max" departPos="random" />
  <trip id="86" depart="16.00" from="C0C1" to="-E65" type="td_0" departLane="best" departSpeed="max" departPos="random" />
  <trip id="xh_950_84" depart="16.50" from="-E33" to="D3top3" type="td_0" departLane="best" departSpeed="max" departPos="random" />
  <trip id="xh_4742_82" depart="16.50" from="-E31" to="E60" type="td_0" departLane="best" departSpeed="max" departPos="random" />
  <trip id="xh_5246_86" depart="16.50" from="C0C1" to="-E65" type="td_0" departLane="best" departSpeed="max" departPos="random" />
  <trip id="xh_7939_83" depart="16.50" from="-E4" to="B2C2" type="td_0" departLane="best" departSpeed="max" departPos="random" />
  <trip id="xh_9627_85" depart="16.50" from="E11" to="-E19" type="td_0" departLane="best" departSpeed="max" departPos="random" />
  <trip id="87" depart="17.00" from="A2B2" to="E40" type="td_0" departLane="best" departSpeed="max" departPos="random" />
  <trip id="88" depart="17.00" from="-E28" to="-E15.181" type="td_0" departLane="best" departSpeed="max" departPos="random" />
  <trip id="89" depart="17.00" from="-E32" to="B1B2" type="td_0" departLane="best" departSpeed="max" departPos="random" />
  <trip id="90" depart="17.00" from="D2right2" to="E58" type="td_0" departLane="best" departSpeed="max" departPos="random" />
  <trip id="91" depart="17.00" from="E16" to="C3top2" type="td_0" departLane="best" departSpeed="max" departPos="random" />
  <trip id="92" depart="17.00" from="bottom3D0" to="bottom3D0" type="td_0" departLane="best" departSpeed="max" departPos="random" />
  <trip id="93" depart="17.00" from="B1A1" to="E53" type="td_0" departLane="best" departSpeed="max" departPos="random" />
  <trip id="xh_815_87" depart="17.50" from="A2B2" to="E40" type="td_0" departLane="best" departSpeed="max" departPos="random" />
  <trip id="xh_1186_92" depart="17.50" from="bottom3D0" to="bottom3D0" type="td_0" departLane="best" departSpeed="max" departPos="random" />
  <trip id="xh_5165_89" depart="17.50" from="-E32" to="B1B2" type="td_0" departLane="best" departSpeed="max" departPos="random" />
  <trip id="94" depart="18.00" from="E26" to="E4" type="td_0" departLane="best" departSpeed="max" departPos="random" />
  <trip id="95" depart="18.00" from="B0bottom1" to="-E5" type="td_0" departLane="best" departSpeed="max" departPos="random" />
  <trip id="96" depart="18.00" from="A1A2" to="E11.252" type="td_0" departLane="best" departSpeed="max" departPos="random" />
  <trip id="97" depart="18.00" from="-E5" to="-E51" type="td_0" departLane="best" departSpeed="max" departPos="random" />
  <trip id="98" depart="18.00" from="E40" to="-E38" type="td_0" departLane="best" departSpeed="max" departPos="random" />
  <trip id="xh_2192_98" depart="18.50" from="E40" to="-E38" type="td_0" departLane="best" departSpeed="max" departPos="random" />
  <trip id="xh_4683_96" depart="18.50" from="A1A2" to="E11.252" type="td_0" departLane="best" departSpeed="max" departPos="random" />
  <trip id="xh_6733_94" depart="18.50" from="E26" to="E4" type="td_0" departLane="best" departSpeed="max" departPos="random" />
  <trip id="xh_9203_95" depart="18.50" from="B0bottom1" to="-E5" type="td_0" departLane="best" departSpeed="max" departPos="random" />
  <trip id="99" depart="19.00" from="E34" to="A1A0" type="td_0" departLane="best" departSpeed="max" departPos="random" />
  <trip id="100" depart="19.00" from="-E24" to="E14" type="td_0" departLane="best" departSpeed="max" departPos="random" />
  <trip id="101" depart="19.00" from="-E61" to="E57" type="td_0" departLane="best" departSpeed="max" departPos="random" />
  <trip id="102" depart="19.00" from="A1B1" to="-E23" type="td_0" departLane="best" departSpeed="max" departPos="random" />
  <trip id="103" depart="19.00" from="D2right2" to="C2D2" type="td_0" departLane="best" departSpeed="max" departPos="random" />
  <trip id="104" depart="19.00" from="C0D0" to="A3B3" type="td_0" departLane="best" departSpeed="max" departPos="random" />
  <trip id="105" depart="19.00" from="-E14" to="left1A1" type="td_0" departLane="best" departSpeed="max" departPos="random" />
  <trip id="xh_6883_100" depart="19.50" from="-E24" to="E14" type="td_0" departLane="best" departSpeed="max" departPos="random" />
  <trip id="xh_7770_104" depart="19.50" from="C0D0" to="A3B3" type="td_0" departLane="best" departSpeed="max" departPos="random" />
  <trip id="106" depart="20.00" from="-E35" to="-E23" type="td_0" departLane="best" departSpeed="max" departPos="random" />
  <trip id="107" depart="20.00" from="-E12" to="E14" type="td_0" departLane="best" departSpeed="max" departPos="random" />
  <trip id="108" depart="20.00" from="-E30" to="C2D2" type="td_0" departLane="best" departSpeed="max" departPos="random" />
  <trip id="xh_135_106" depart="20.50" from="-E35" to="-E23" type="td_0" departLane="best" departSpeed="max" departPos="random" />
  <trip id="xh_4991_108" depart="20.50" from="-E30" to="C2D2" type="td_0" departLane="best" departSpeed="max" departPos="random" />
  <trip id="xh_6176_107" depart="20.50" from="-E12" to="E14" type="td_0" departLane="best" departSpeed="max" departPos="random" />
  <trip id="109" depart="21.00" from="B3top1" to="A1B1" type="td_0" departLane="best" departSpeed="max" departPos="random" />
  <trip id="110" depart="21.00" from="E6" to="-E35" type="td_0" departLane="best" departSpeed="max" departPos="random" />
  <trip id="111" depart="21.00" from="C3C2" to="-E31" type="td_0" departLane="best" departSpeed="max" departPos="random" />
  <trip id="112" depart="21.00" from="-E18" to="-E59" type="td_0" departLane="best" departSpeed="max" departPos="random" />
  <trip id="113" depart="21.00" from="B0B1" to="-E42" type="td_0" departLane="best" departSpeed="max" departPos="random" />
  <trip id="114" depart="21.00" from="-E43" to="-E51" type="td_0" departLane="best" departSpeed="max" departPos="random" />
  <trip id="xh_2222_113" depart="21.50" from="B0B1" to="-E42" type="td_0" departLane="best" departSpeed="max" departPos="random" />
  <trip id="115" depart="22.00" from="-E55" to="E19" type="td_0" departLane="best" departSpeed="max" departPos="random" />
  <trip id="116" depart="22.00" from="left2A2" to="E15.181" type="td_0" departLane="best" departSpeed="max" departPos="random" />
  <trip id="117" depart="22.00" from="C0D0" to="E30" type="td_0" departLane="best" departSpeed="max" departPos="random" />
  <trip id="118" depart="22.00" from="E47" to="-E37.245" type="td_0" departLane="best" departSpeed="max" departPos="random" />
  <trip id="119" depart="22.00" from="-E11.252" to="E46" type="td_0" departLane="best" departSpeed="max" departPos="random" />
  <trip id="120" depart="22.00" from="D0D1" to="E36" type="td_0" departLane="best" departSpeed="max" departPos="random" />
  <trip id="121" depart="22.00" from="E64" to="bottom3D0" type="td_0" departLane="best" departSpeed="max" departPos="random" />
  <trip id="xh_358_116" depart="22.50" from="left2A2" to="E15.181" type="td_0" departLane="best" departSpeed="max" departPos="random" />
  <trip id="xh_3650_120" depart="22.50" from="D0D1" to="E36" type="td_0" departLane="best" departSpeed="max" departPos="random" />
  <trip id="xh_5174_117" depart="22.50" from="C0D0" to="E30" type="td_0" departLane="best" departSpeed="max" departPos="random" />
  <trip id="xh_5761_118" depart="22.50" from="E47" to="-E37.245" type="td_0" departLane="best" departSpeed="max" departPos="random" />
  <trip id="xh_7302_121" depart="22.50" from="E64" to="bottom3D0" type="td_0" departLane="best" departSpeed="max" departPos="random" />
  <trip id="122" depart="23.00" from="B0B1" to="E22" type="td_0" departLane="best" departSpeed="max" departPos="random" />
  <trip id="123" depart="23.00" from="bottom2C0" to="B2C2" type="td_0" departLane="best" departSpeed="max" departPos="random" />
  <trip id="124" depart="23.00" from="C2C1" to="E44" type="td_0" departLane="best" departSpeed="max" departPos="random" />
  <trip id="125" depart="23.00" from="D1C1" to="A3top0" type="td_0" departLane="best" departSpeed="max" departPos="random" />
  <trip id="126" depart="23.00" from="E10" to="-E33" type="td_0" departLane="best" departSpeed="max" departPos="random" />
  <trip id="127" depart="23.00" from="-E29" to="E54" type="td_0" departLane="best" departSpeed="max" departPos="random" />
  <trip id="128" depart="23.00" from="B3top1" to="-E48" type="td_0" departLane="best" departSpeed="max" departPos="random" />
  <trip id="xh_3342_125" depart="23.50" from="D1C1" to="A3top0" type="td_0" departLane="best" departSpeed="max" departPos="random" />
  <trip id="xh_8934_128" depart="23.50" from="B3top1" to="-E48" type="td_0" departLane="best" departSpeed="max" departPos="random" />
  <trip id="129" depart="24.00" from="E26" to="C2B2" type="td_0" departLane="best" departSpeed="max" departPos="random" />
  <trip id="130" depart="24.00" from="-E37" to="B0C0" type="td_0" departLane="best" departSpeed="max" departPos="random" />
  <trip id="131" depart="24.00" from="D2D1" to="E42" type="td_0" departLane="best" departSpeed="max" departPos="random" />
  <trip id="132" depart="24.00" from="E48" to="E30" type="td_0" departLane="best" departSpeed="max" departPos="random" />
  <trip id="133" depart="24.00" from="E24" to="A0B0" type="td_0" departLane="best" departSpeed="max" departPos="random" />
  <trip id="xh_7226_133" depart="24.50" from="E24" to="A0B0" type="td_0" departLane="best" departSpeed="max" departPos="random" />
  <trip id="xh_9390_129" depart="24.50" from="E26" to="C2B2" type="td_0" departLane="best" departSpeed="max" departPos="random" />
  <trip id="134" depart="25.00" from="B2B1" to="-E56" type="td_0" departLane="best" departSpeed="max" departPos="random" />
  <trip id="135" depart="25.00" from="E49" to="E13" type="td_0" departLane="best" departSpeed="max" departPos="random" />
  <trip id="136" depart="25.00" from="-E33" to="E15" type="td_0" departLane="best" departSpeed="max" departPos="random" />
  <trip id="137" depart="25.00" from="A1A0" to="E7.369" type="td_0" departLane="best" departSpeed="max" departPos="random" />
  <trip id="138" depart="25.00" from="C1C2" to="C2B2" type="td_0" departLane="best" departSpeed="max" departPos="random" />
  <trip id="139" depart="25.00" from="C2B2" to="top3D3" type="td_0" departLane="best" departSpeed="max" departPos="random" />
  <trip id="140" depart="25.00" from="-E42" to="D1D2" type="td_0" departLane="best" departSpeed="max" departPos="random" />
  <trip id="141" depart="25.00" from="-E23" to="D2D1" type="td_0" departLane="best" departSpeed="max" departPos="random" />
  <trip id="xh_3621_138" depart="25.50" from="C1C2" to="C2B2" type="td_0" departLane="best" departSpeed="max" departPos="random" />
  <trip id="xh_5483_137" depart="25.50" from="A1A0" to="E7.369" type="td_0" departLane="best" departSpeed="max" departPos="random" />
  <trip id="xh_5747_136" depart="25.50" from="-E33" to="E15" type="td_0" departLane="best" departSpeed="max" departPos="random" />
  <trip id="xh_5828_134" depart="25.50" from="B2B1" to="-E56" type="td_0" departLane="best" departSpeed="max" departPos="random" />
  <trip id="142" depart="26.00" from="-E55" to="-E33" type="td_0" departLane="best" departSpeed="max" departPos="random" />
  <trip id="143" depart="26.00" from="C0B0" to="-E24" type="td_0" departLane="best" departSpeed="max" departPos="random" />
  <trip id="144" depart="26.00" from="-E56.635" to="-E25.370" type="td_0" departLane="best" departSpeed="max" departPos="random" />
  <trip id="145" depart="26.00" from="-E6" to="-E39" type="td_0" departLane="best" departSpeed="max" departPos="random" />
  <trip id="146" depart="26.00" from="A0bottom0" to="-E22" type="td_0" departLane="best" departSpeed="max" departPos="random" />
  <trip id="xh_2665_145" depart="26.50" from="-E6" to="-E39" type="td_0" departLane="best" departSpeed="max" departPos="random" />
  <trip id="xh_4577_144" depart="26.50" from="-E56.635" to="-E25.370" type="td_0" departLane="best" departSpeed="max" departPos="random" />
  <trip id="xh_5920_146" depart="26.50" from="A0bottom0" to="-E22" type="td_0" departLane="best" departSpeed="max" departPos="random" />
  <trip id="147" depart="27.00" from="-E4" to="B3C3" type="td_0" departLane="best" departSpeed="max" departPos="random" />
  <trip id="148" depart="27.00" from="E38" to="-E58" type="td_0" departLane="best" departSpeed="max" departPos="random" />
  <trip id="149" depart="27.00" from="C3C2" to="-E53" type="td_0" departLane="best" departSpeed="max" departPos="random" />
  <trip id="150" depart="27.00" from="-E31" to="-E20" type="td_0" departLane="best" departSpeed="max" departPos="random" />
  <trip id="151" depart="27.00" from="C0C1" to="E7.369" type="td_0" departLane="best" departSpeed="max" departPos="random" />
  <trip id="152" depart="27.00" from="-E29" to="-E39" type="td_0" departLane="best" departSpeed="max" departPos="random" />
  <trip id="153" depart="27.00" from="-E39.240" to="-E52" type="td_0" departLane="best" departSpeed="max" departPos="random" />
  <trip id="154" depart="27.00" from="B0A0" to="-E20" type="td_0" departLane="best" departSpeed="max" departPos="random" />
  <trip id="xh_3950_152" depart="27.50" from="-E29" to="-E39" type="td_0" departLane="best" departSpeed="max" departPos="random" />
  <trip id="xh_5753_149" depart="27.50" from="C3C2" to="-E53" type="td_0" departLane="best" departSpeed="max" departPos="random" />
  <trip id="155" depart="28.00" from="C2D2" to="-E36" type="td_0" departLane="best" departSpeed="max" departPos="random" />
  <trip id="156" depart="28.00" from="D2C2" to="E33" type="td_0" departLane="best" departSpeed="max" departPos="random" />
  <trip id="157" depart="28.00" from="-E60" to="E56" type="td_0" departLane="best" departSpeed="max" departPos="random" />
  <trip id="158" depart="28.00" from="-E18" to="E59" type="td_0" departLane="best" departSpeed="max" departPos="random" />
  <trip id="159" depart="28.00" from="top1B3" to="B1B2" type="td_0" departLane="best" departSpeed="max" departPos="random" />
  <trip id="xh_4045_158" depart="28.50" from="-E18" to="E59" type="td_0" departLane="best" departSpeed="max" departPos="random" />
  <trip id="xh_5388_159" depart="28.50" from="top1B3" to="B1B2" type="td_0" departLane="best" departSpeed="max" departPos="random" />
  <trip id="160" depart="29.00" from="B3C3" to="-E11.252" type="td_0" departLane="best" departSpeed="max" departPos="random" />
  <trip id="161" depart="29.00" from="B1C1" to="A3B3" type="td_0" departLane="best" departSpeed="max" departPos="random" />
  <trip id="162" depart="29.00" from="-E25" to="-E33" type="td_0" departLane="best" departSpeed="max" departPos="random" />