<?xml version="1.0" encoding="UTF-8"?>

<!-- generated on 2026-01-26T16:25:49.260557+07:00 by Eclipse SUMO netconvert 1.25.0
<netconvertConfiguration xmlns:xsi="http://www.w3.org/2001/XMLSchema-instance" xsi:noNamespaceSchemaLocation="http://sumo.dlr.de/xsd/netconvertConfiguration.xsd">

    <input>
        <sumo-net-file value="grid4x4.net.xml"/>
    </input>

    <output>
        <output-file value="grid4x4_no_internal_links.net.xml"/>
    </output>

    <processing>
        <geometry.min-radius.fix.railways value="false"/>
        <geometry.avoid-overlap value="false"/>
        <geometry.max-grade.fix value="false"/>
        <offset.disable-normalization value="true"/>
        <lefthand value="0"/>
    </processing>

    <junctions>
        <no-internal-links value="true"/>
        <no-turnarounds value="true"/>
        <junctions.corner-detail value="5"/>
        <junctions.limit-turn-speed value="5.50"/>
        <rectangular-lane-cut value="0"/>
    </junctions>

    <pedestrian>
        <walkingareas value="0"/>
    </pedestrian>

</netconvertConfiguration>
-->

<net version="1.20" junctionCornerDetail="5" limitTurnSpeed="5.50" avoidOverlap="0" xmlns:xsi="http://www.w3.org/2001/XMLSchema-instance" xsi:noNamespaceSchemaLocation="http://sumo.dlr.de/xsd/net_file.xsd">

    <location netOffset="0.00,0.00" convBoundary="-661.13,-779.14,2687.20,2306.70" origBoundary="0.00,0.00,1500.00,1500.00" projParameter="!"/>

    <edge id="-E10" from="clusterJ29_J7" to="J5" priority="-1" shape="559.38,2009.75 914.26,2125.56">
        <lane id="-E10_0" index="0" speed="13.89" length="374.34" shape="574.82,2006.37 900.05,2112.51"/>
        <lane id="-E10_1" index="1" speed="13.89" length="374.34" shape="573.82,2009.41 899.06,2115.55"/>
        <lane id="-E10_2" index="2" speed="13.89" length="374.34" shape="572.83,2012.46 898.07,2118.59"/>
    </edge>
    <edge id="-E11" from="clusterJ28_J59" to="top0" priority="-1" shape="162.52,1663.10 300.00,1500.00">
        <lane id="-E11_0" index="0" speed="13.89" length="217.19" shape="161.53,1651.86 291.62,1497.52"/>
        <lane id="-E11_1" index="1" speed="13.89" length="217.19" shape="163.98,1653.93 294.07,1499.59"/>
        <lane id="-E11_2" index="2" speed="13.89" length="217.19" shape="166.42,1655.99 296.52,1501.65"/>
    </edge>
    <edge id="-E11.252" from="J8" to="clusterJ28_J59" priority="-1" shape="-183.07,1821.43 162.52,1663.10">
        <lane id="-E11.252_0" index="0" speed="13.89" length="376.39" shape="-174.33,1808.63 137.34,1665.84"/>
        <lane id="-E11.252_1" index="1" speed="13.89" length="376.39" shape="-173.00,1811.54 138.67,1668.75"/>
        <lane id="-E11.252_2" index="2" speed="13.89" length="376.39" shape="-171.67,1814.45 140.01,1671.66"/>
    </edge>
    <edge id="-E12" from="J9" to="J8" priority="-1">
        <lane id="-E12_0" index="0" speed="13.89" length="376.89" shape="-45.34,2172.34 -184.97,1837.65"/>
        <lane id="-E12_1" index="1" speed="13.89" length="376.89" shape="-42.39,2171.11 -182.02,1836.42"/>
        <lane id="-E12_2" index="2" speed="13.89" length="376.89" shape="-39.44,2169.88 -179.07,1835.18"/>
    </edge>
    <edge id="-E13" from="J10" to="J8" priority="-1">
        <lane id="-E13_0" index="0" speed="13.89" length="194.02" shape="-274.69,1653.58 -183.65,1804.95"/>
        <lane id="-E13_1" index="1" speed="13.89" length="194.02" shape="-277.43,1655.23 -186.39,1806.60"/>
        <lane id="-E13_2" index="2" speed="13.89" length="194.02" shape="-280.18,1656.88 -189.13,1808.25"/>
    </edge>
    <edge id="-E14" from="J11" to="J8" priority="-1">
        <lane id="-E14_0" index="0" speed="13.89" length="360.02" shape="-509.33,1973.87 -199.55,1820.65"/>
        <lane id="-E14_1" index="1" speed="13.89" length="360.02" shape="-507.91,1976.74 -198.13,1823.52"/>
        <lane id="-E14_2" index="2" speed="13.89" length="360.02" shape="-506.49,1979.61 -196.71,1826.39"/>
    </edge>
    <edge id="-E15" from="clusterJ19_J60" to="left3" priority="-1" shape="-180.88,1217.26 0.00,1200.00">
        <lane id="-E15_0" index="0" speed="13.89" length="184.69" shape="-166.84,1207.88 -1.21,1192.08"/>
        <lane id="-E15_1" index="1" speed="13.89" length="184.69" shape="-166.54,1211.07 -0.91,1195.27"/>
        <lane id="-E15_2" index="2" speed="13.89" length="184.69" shape="-166.23,1214.26 -0.61,1198.45"/>
    </edge>
    <edge id="-E15.181" from="J12" to="clusterJ19_J60" priority="-1" shape="-488.51,1246.63 -180.88,1217.26">
        <lane id="-E15.181_0" index="0" speed="13.89" length="306.05" shape="-475.15,1237.32 -203.66,1211.40"/>
        <lane id="-E15.181_1" index="1" speed="13.89" length="306.05" shape="-474.84,1240.50 -203.36,1214.58"/>
        <lane id="-E15.181_2" index="2" speed="13.89" length="306.05" shape="-474.54,1243.69 -203.05,1217.77"/>
    </edge>
    <edge id="-E16" from="J13" to="J12" priority="-1">
        <lane id="-E16_0" index="0" speed="13.89" length="324.98" shape="-474.19,1565.71 -495.56,1260.52"/>
        <lane id="-E16_1" index="1" speed="13.89" length="324.98" shape="-470.99,1565.49 -492.37,1260.29"/>
        <lane id="-E16_2" index="2" speed="13.89" length="324.98" shape="-467.80,1565.27 -489.17,1260.07"/>
    </edge>
    <edge id="-E17" from="J13" to="J10" priority="-1">
        <lane id="-E17_0" index="0" speed="13.89" length="201.27" shape="-457.30,1565.94 -282.40,1646.67"/>
        <lane id="-E17_1" index="1" speed="13.89" length="201.27" shape="-458.64,1568.84 -283.74,1649.57"/>
        <lane id="-E17_2" index="2" speed="13.89" length="201.27" shape="-459.98,1571.75 -285.08,1652.48"/>
    </edge>
    <edge id="-E18" from="J14" to="J12" priority="-1">
        <lane id="-E18_0" index="0" speed="13.89" length="172.65" shape="-660.98,1235.32 -502.50,1238.36"/>
        <lane id="-E18_1" index="1" speed="13.89" length="172.65" shape="-661.04,1238.52 -502.56,1241.56"/>
        <lane id="-E18_2" index="2" speed="13.89" length="172.65" shape="-661.10,1241.72 -502.62,1244.76"/>
    </edge>
    <edge id="-E19" from="J15" to="J12" priority="-1">
        <lane id="-E19_0" index="0" speed="13.89" length="304.56" shape="-491.07,951.31 -481.02,1232.16"/>
        <lane id="-E19_1" index="1" speed="13.89" length="304.56" shape="-494.27,951.42 -484.22,1232.28"/>
        <lane id="-E19_2" index="2" speed="13.89" length="304.56" shape="-497.47,951.54 -487.42,1232.39"/>
    </edge>
    <edge id="-E20" from="J16" to="left2" priority="-1">
        <lane id="-E20_0" index="0" speed="13.89" length="307.20" shape="-284.28,853.79 0.43,891.99"/>
        <lane id="-E20_1" index="1" speed="13.89" length="307.20" shape="-284.71,856.96 0.00,895.16"/>
        <lane id="-E20_2" index="2" speed="13.89" length="307.20" shape="-285.13,860.13 -0.42,898.33"/>
    </edge>
    <edge id="-E21" from="J17" to="J16" priority="-1">
        <lane id="-E21_0" index="0" speed="13.89" length="187.28" shape="-368.14,684.87 -302.26,843.61"/>
        <lane id="-E21_1" index="1" speed="13.89" length="187.28" shape="-371.10,686.10 -305.21,844.83"/>
        <lane id="-E21_2" index="2" speed="13.89" length="187.28" shape="-374.05,687.33 -308.17,846.06"/>
    </edge>
    <edge id="-E22" from="J15" to="J16" priority="-1">
        <lane id="-E22_0" index="0" speed="13.89" length="211.91" shape="-493.95,931.24 -320.92,857.47"/>
        <lane id="-E22_1" index="1" speed="13.89" length="211.91" shape="-492.69,934.18 -319.66,860.41"/>
        <lane id="-E22_2" index="2" speed="13.89" length="211.91" shape="-491.44,937.13 -318.41,863.35"/>
    </edge>
    <edge id="-E23" from="J18" to="J15" priority="-1">
        <lane id="-E23_0" index="0" speed="13.89" length="210.79" shape="-637.46,794.22 -500.31,930.10"/>
        <lane id="-E23_1" index="1" speed="13.89" length="210.79" shape="-639.71,796.49 -502.56,932.37"/>
        <lane id="-E23_2" index="2" speed="13.89" length="210.79" shape="-641.96,798.76 -504.81,934.65"/>
    </edge>
    <edge id="-E24" from="clusterJ19_J60" to="J16" priority="-1" shape="-186.73,1218.58 -304.47,859.15">
        <lane id="-E24_0" index="0" speed="13.89" length="378.76" shape="-199.56,1205.13 -306.07,879.98"/>
        <lane id="-E24_1" index="1" speed="13.89" length="378.76" shape="-196.51,1204.13 -303.02,878.98"/>
        <lane id="-E24_2" index="2" speed="13.89" length="378.76" shape="-193.47,1203.13 -299.98,877.99"/>
    </edge>
    <edge id="-E25" from="clusterJ21_J61" to="left1" priority="-1" shape="-370.01,584.00 0.00,600.00">
        <lane id="-E25_0" index="0" speed="13.89" length="373.55" shape="-360.26,576.41 0.13,592.00"/>
        <lane id="-E25_1" index="1" speed="13.89" length="373.55" shape="-360.40,579.61 -0.01,595.20"/>
        <lane id="-E25_2" index="2" speed="13.89" length="373.55" shape="-360.54,582.81 -0.14,598.39"/>
    </edge>
    <edge id="-E25.370" from="J20" to="clusterJ21_J61" priority="-1" shape="-481.81,579.16 -370.01,584.00">
        <lane id="-E25.370_0" index="0" speed="13.89" length="108.79" shape="-473.10,571.53 -389.21,575.16"/>
        <lane id="-E25.370_1" index="1" speed="13.89" length="108.79" shape="-473.24,574.73 -389.34,578.36"/>
        <lane id="-E25.370_2" index="2" speed="13.89" length="108.79" shape="-473.38,577.92 -389.48,581.56"/>
    </edge>
    <edge id="-E26" from="clusterJ21_J61" to="J17" priority="-1" shape="-376.38,585.82 -376.26,686.18">
        <lane id="-E26_0" index="0" speed="13.89" length="101.65" shape="-368.37,597.75 -368.26,684.26"/>
        <lane id="-E26_1" index="1" speed="13.89" length="101.65" shape="-371.57,597.75 -371.46,684.27"/>
        <lane id="-E26_2" index="2" speed="13.89" length="101.65" shape="-374.77,597.76 -374.66,684.27"/>
    </edge>
    <edge id="-E27" from="J18" to="J20" priority="-1">
        <lane id="-E27_0" index="0" speed="13.89" length="272.24" shape="-650.21,782.26 -495.27,583.42"/>
        <lane id="-E27_1" index="1" speed="13.89" length="272.24" shape="-647.69,784.23 -492.74,585.38"/>
        <lane id="-E27_2" index="2" speed="13.89" length="272.24" shape="-645.16,786.19 -490.22,587.35"/>
    </edge>
    <edge id="-E28" from="J22" to="J20" priority="-1">
        <lane id="-E28_0" index="0" speed="13.89" length="250.50" shape="-647.26,390.91 -483.92,565.20"/>
        <lane id="-E28_1" index="1" speed="13.89" length="250.50" shape="-649.60,393.10 -486.26,567.39"/>
        <lane id="-E28_2" index="2" speed="13.89" length="250.50" shape="-651.93,395.29 -488.59,569.58"/>
    </edge>
    <edge id="-E29" from="J23" to="left0" priority="-1">
        <lane id="-E29_0" index="0" speed="13.89" length="314.27" shape="-295.75,286.12 0.02,292.00"/>
        <lane id="-E29_1" index="1" speed="13.89" length="314.27" shape="-295.82,289.31 -0.04,295.20"/>
        <lane id="-E29_2" index="2" speed="13.89" length="314.27" shape="-295.88,292.51 -0.11,298.40"/>
    </edge>
    <edge id="-E30" from="J23" to="clusterJ21_J61" priority="-1" shape="-314.21,293.75 -376.38,585.82">
        <lane id="-E30_0" index="0" speed="13.89" length="297.33" shape="-308.87,307.09 -364.92,570.40"/>
        <lane id="-E30_1" index="1" speed="13.89" length="297.33" shape="-312.00,306.42 -368.05,569.73"/>
        <lane id="-E30_2" index="2" speed="13.89" length="297.33" shape="-315.13,305.75 -371.18,569.06"/>
    </edge>
    <edge id="-E31" from="J24" to="bottom0" priority="-1">
        <lane id="-E31_0" index="0" speed="13.89" length="271.96" shape="227.58,-244.90 307.11,-3.97"/>
        <lane id="-E31_1" index="1" speed="13.89" length="271.96" shape="224.54,-243.90 304.07,-2.97"/>
        <lane id="-E31_2" index="2" speed="13.89" length="271.96" shape="221.50,-242.90 301.04,-1.97"/>
    </edge>
    <edge id="-E32" from="J25" to="J24" priority="-1">
        <lane id="-E32_0" index="0" speed="13.89" length="282.10" shape="228.37,-529.31 223.04,-272.31"/>
        <lane id="-E32_1" index="1" speed="13.89" length="282.10" shape="225.17,-529.38 219.84,-272.38"/>
        <lane id="-E32_2" index="2" speed="13.89" length="282.10" shape="221.98,-529.45 216.64,-272.45"/>
    </edge>
    <edge id="-E33" from="J26" to="J24" priority="-1">
        <lane id="-E33_0" index="0" speed="13.89" length="288.97" shape="-67.76,-269.06 201.33,-266.38"/>
        <lane id="-E33_1" index="1" speed="13.89" length="288.97" shape="-67.79,-265.86 201.30,-263.18"/>
        <lane id="-E33_2" index="2" speed="13.89" length="288.97" shape="-67.82,-262.66 201.27,-259.98"/>
    </edge>
    <edge id="-E34" from="J27" to="J24" priority="-1">
        <lane id="-E34_0" index="0" speed="13.89" length="258.49" shape="471.95,-261.30 231.77,-250.97"/>
        <lane id="-E34_1" index="1" speed="13.89" length="258.49" shape="471.81,-264.49 231.64,-254.17"/>
        <lane id="-E34_2" index="2" speed="13.89" length="258.49" shape="471.67,-267.69 231.50,-257.37"/>
    </edge>
    <edge id="-E35" from="J26" to="J23" priority="-1">
        <lane id="-E35_0" index="0" speed="13.89" length="604.55" shape="-69.40,-252.09 -299.60,280.13"/>
        <lane id="-E35_1" index="1" speed="13.89" length="604.55" shape="-72.34,-253.36 -302.54,278.86"/>
        <lane id="-E35_2" index="2" speed="13.89" length="604.55" shape="-75.27,-254.63 -305.48,277.59"/>
    </edge>
    <edge id="-E36" from="clusterJ28_J59" to="clusterJ19_J60" priority="-1" shape="156.56,1668.18 -186.73,1218.58">
        <lane id="-E36_0" index="0" speed="13.89" length="564.83" shape="139.15,1658.57 -180.71,1239.64"/>
        <lane id="-E36_1" index="1" speed="13.89" length="564.83" shape="141.70,1656.62 -178.17,1237.70"/>
        <lane id="-E36_2" index="2" speed="13.89" length="564.83" shape="144.24,1654.68 -175.62,1235.76"/>
    </edge>
    <edge id="-E37" from="clusterJ31_J54" to="bottom1" priority="-1" shape="593.28,-245.32 600.00,0.00">
        <lane id="-E37_0" index="0" speed="13.89" length="242.44" shape="601.81,-226.09 607.99,-0.36"/>
        <lane id="-E37_1" index="1" speed="13.89" length="242.44" shape="598.61,-226.00 604.79,-0.28"/>
        <lane id="-E37_2" index="2" speed="13.89" length="242.44" shape="595.41,-225.91 601.60,-0.19"/>
    </edge>
    <edge id="-E37.245" from="J30" to="clusterJ31_J54" priority="-1" shape="586.16,-505.03 593.28,-245.32">
        <lane id="-E37.245_0" index="0" speed="13.89" length="262.79" shape="594.34,-498.54 600.99,-255.98"/>
        <lane id="-E37.245_1" index="1" speed="13.89" length="262.79" shape="591.14,-498.45 597.79,-255.90"/>
        <lane id="-E37.245_2" index="2" speed="13.89" length="262.79" shape="587.94,-498.36 594.59,-255.81"/>
    </edge>
    <edge id="-E38" from="clusterJ31_J54" to="J27" priority="-1" shape="592.53,-239.34 473.00,-269.35">
        <lane id="-E38_0" index="0" speed="13.89" length="123.16" shape="575.34,-235.41 472.41,-261.25"/>
        <lane id="-E38_1" index="1" speed="13.89" length="123.16" shape="576.12,-238.51 473.19,-264.35"/>
        <lane id="-E38_2" index="2" speed="13.89" length="123.16" shape="576.90,-241.61 473.96,-267.46"/>
    </edge>
    <edge id="-E39" from="clusterJ34_J56" to="J32" priority="-1" shape="881.93,-242.80 903.92,-3.23">
        <lane id="-E39_0" index="0" speed="13.89" length="244.24" shape="890.51,-236.82 911.89,-3.96"/>
        <lane id="-E39_1" index="1" speed="13.89" length="244.24" shape="887.33,-236.52 908.70,-3.67"/>
        <lane id="-E39_2" index="2" speed="13.89" length="244.24" shape="884.14,-236.23 905.51,-3.38"/>
    </edge>
    <edge id="-E39.240" from="J33" to="clusterJ34_J56" priority="-1" shape="859.02,-492.31 881.93,-242.80">
        <lane id="-E39.240_0" index="0" speed="13.89" length="246.96" shape="866.99,-493.04 887.95,-264.75"/>
        <lane id="-E39.240_1" index="1" speed="13.89" length="246.96" shape="863.80,-492.75 884.76,-264.45"/>
        <lane id="-E39.240_2" index="2" speed="13.89" length="246.96" shape="860.61,-492.46 881.58,-264.16"/>
    </edge>
    <edge id="-E4" from="J4" to="top3" priority="-1">
        <lane id="-E4_0" index="0" speed="13.89" length="592.48" shape="1476.28,2004.43 1194.28,1506.14"/>
        <lane id="-E4_1" index="1" speed="13.89" length="592.48" shape="1479.07,2002.86 1197.07,1504.56"/>
        <lane id="-E4_2" index="2" speed="13.89" length="592.48" shape="1481.85,2001.28 1199.85,1502.99"/>
    </edge>
    <edge id="-E40" from="clusterJ34_J56" to="clusterJ31_J54" priority="-1" shape="879.57,-249.87 592.53,-239.34">
        <lane id="-E40_0" index="0" speed="13.89" length="288.58" shape="867.44,-241.42 607.42,-231.88"/>
        <lane id="-E40_1" index="1" speed="13.89" length="288.58" shape="867.32,-244.62 607.30,-235.08"/>
        <lane id="-E40_2" index="2" speed="13.89" length="288.58" shape="867.20,-247.82 607.18,-238.28"/>
    </edge>
    <edge id="-E41" from="clusterJ36_J55" to="bottom3" priority="-1" shape="1189.42,-261.79 1200.00,0.00">
        <lane id="-E41_0" index="0" speed="13.89" length="264.84" shape="1197.75,-253.74 1207.99,-0.52"/>
        <lane id="-E41_1" index="1" speed="13.89" length="264.84" shape="1194.55,-253.61 1204.79,-0.40"/>
        <lane id="-E41_2" index="2" speed="13.89" length="264.84" shape="1191.36,-253.48 1201.59,-0.27"/>
    </edge>
    <edge id="-E41.262" from="J35" to="clusterJ36_J55" priority="-1" shape="1180.62,-479.73 1189.42,-261.79">
        <lane id="-E41.262_0" index="0" speed="13.89" length="215.32" shape="1188.61,-480.05 1196.64,-281.18"/>
        <lane id="-E41.262_1" index="1" speed="13.89" length="215.32" shape="1185.42,-479.92 1193.45,-281.05"/>
        <lane id="-E41.262_2" index="2" speed="13.89" length="215.32" shape="1182.22,-479.79 1190.25,-280.92"/>
    </edge>
    <edge id="-E42" from="clusterJ36_J55" to="clusterJ34_J56" priority="-1" shape="1187.70,-267.34 879.57,-249.87">
        <lane id="-E42_0" index="0" speed="13.89" length="309.09" shape="1175.91,-258.66 895.64,-242.77"/>
        <lane id="-E42_1" index="1" speed="13.89" length="309.09" shape="1175.73,-261.85 895.46,-245.96"/>
        <lane id="-E42_2" index="2" speed="13.89" length="309.09" shape="1175.55,-265.05 895.28,-249.16"/>
    </edge>
    <edge id="-E43" from="J37" to="J25" priority="-1">
        <lane id="-E43_0" index="0" speed="13.89" length="113.12" shape="316.95,-583.14 232.12,-537.41"/>
        <lane id="-E43_1" index="1" speed="13.89" length="113.12" shape="315.43,-585.96 230.60,-540.23"/>
        <lane id="-E43_2" index="2" speed="13.89" length="113.12" shape="313.91,-588.78 229.08,-543.05"/>
    </edge>
    <edge id="-E44" from="J38" to="J25" priority="-1">
        <lane id="-E44_0" index="0" speed="13.89" length="188.36" shape="39.97,-594.30 212.08,-550.70"/>
        <lane id="-E44_1" index="1" speed="13.89" length="188.36" shape="39.19,-591.20 211.30,-547.60"/>
        <lane id="-E44_2" index="2" speed="13.89" length="188.36" shape="38.40,-588.10 210.51,-544.50"/>
    </edge>
    <edge id="-E45" from="J37" to="J30" priority="-1">
        <lane id="-E45_0" index="0" speed="13.89" length="280.47" shape="334.43,-597.64 582.33,-514.75"/>
        <lane id="-E45_1" index="1" speed="13.89" length="280.47" shape="333.41,-594.60 581.31,-511.71"/>
        <lane id="-E45_2" index="2" speed="13.89" length="280.47" shape="332.40,-591.57 580.30,-508.68"/>
    </edge>
    <edge id="-E46" from="J39" to="J37" priority="-1">
        <lane id="-E46_0" index="0" speed="13.89" length="190.05" shape="370.74,-777.34 330.75,-604.21"/>
        <lane id="-E46_1" index="1" speed="13.89" length="190.05" shape="367.63,-778.06 327.63,-604.93"/>
        <lane id="-E46_2" index="2" speed="13.89" length="190.05" shape="364.51,-778.78 324.51,-605.65"/>
    </edge>
    <edge id="-E47" from="J40" to="right3" priority="-1">
        <lane id="-E47_0" index="0" speed="13.89" length="705.63" shape="2076.33,1574.88 1498.07,1208.25"/>
        <lane id="-E47_1" index="1" speed="13.89" length="705.63" shape="2078.04,1572.17 1499.78,1205.55"/>
        <lane id="-E47_2" index="2" speed="13.89" length="705.63" shape="2079.75,1569.47 1501.50,1202.84"/>
    </edge>
    <edge id="-E48" from="clusterJ29_J7" to="clusterJ28_J59" priority="-1" shape="557.67,2013.81 156.56,1668.18">
        <lane id="-E48_0" index="0" speed="13.89" length="529.40" shape="535.13,2004.95 162.53,1683.89"/>
        <lane id="-E48_1" index="1" speed="13.89" length="529.40" shape="537.22,2002.53 164.62,1681.46"/>
        <lane id="-E48_2" index="2" speed="13.89" length="529.40" shape="539.31,2000.10 166.71,1679.04"/>
    </edge>
    <edge id="-E49" from="J40" to="J4" priority="-1">
        <lane id="-E49_0" index="0" speed="13.89" length="746.08" shape="2085.94,1594.97 1508.44,2013.46"/>
        <lane id="-E49_1" index="1" speed="13.89" length="746.08" shape="2084.06,1592.38 1506.56,2010.87"/>
        <lane id="-E49_2" index="2" speed="13.89" length="746.08" shape="2082.18,1589.79 1504.69,2008.28"/>
    </edge>
    <edge id="-E5" from="J5" to="top2" priority="-1">
        <lane id="-E5_0" index="0" speed="13.89" length="625.72" shape="905.86,2108.19 892.01,1500.32"/>
        <lane id="-E5_1" index="1" speed="13.89" length="625.72" shape="909.06,2108.12 895.20,1500.25"/>
        <lane id="-E5_2" index="2" speed="13.89" length="625.72" shape="912.26,2108.05 898.40,1500.17"/>
    </edge>
    <edge id="-E50" from="J41" to="J40" priority="-1">
        <lane id="-E50_0" index="0" speed="13.89" length="217.76" shape="2277.41,1698.48 2102.73,1591.39"/>
        <lane id="-E50_1" index="1" speed="13.89" length="217.76" shape="2279.08,1695.75 2104.40,1588.66"/>
        <lane id="-E50_2" index="2" speed="13.89" length="217.76" shape="2280.75,1693.02 2106.08,1585.93"/>
    </edge>
    <edge id="-E51" from="J42" to="right2" priority="-1">
        <lane id="-E51_0" index="0" speed="13.89" length="585.46" shape="2074.87,905.55 1500.18,908.00"/>
        <lane id="-E51_1" index="1" speed="13.89" length="585.46" shape="2074.85,902.35 1500.17,904.80"/>
        <lane id="-E51_2" index="2" speed="13.89" length="585.46" shape="2074.84,899.15 1500.16,901.60"/>
    </edge>
    <edge id="-E52" from="J43" to="J40" priority="-1">
        <lane id="-E52_0" index="0" speed="13.89" length="571.75" shape="2356.19,1084.53 2109.67,1568.51"/>
        <lane id="-E52_1" index="1" speed="13.89" length="571.75" shape="2353.34,1083.08 2106.82,1567.06"/>
        <lane id="-E52_2" index="2" speed="13.89" length="571.75" shape="2350.48,1081.63 2103.97,1565.60"/>
    </edge>
    <edge id="-E53" from="J43" to="J42" priority="-1">
        <lane id="-E53_0" index="0" speed="13.89" length="319.52" shape="2337.08,1066.22 2089.65,909.62"/>
        <lane id="-E53_1" index="1" speed="13.89" length="319.52" shape="2338.80,1063.52 2091.36,906.92"/>
        <lane id="-E53_2" index="2" speed="13.89" length="319.52" shape="2340.51,1060.81 2093.07,904.22"/>
    </edge>
    <edge id="-E54" from="J44" to="J43" priority="-1">
        <lane id="-E54_0" index="0" speed="13.89" length="190.63" shape="2517.10,1169.71 2363.70,1082.28"/>
        <lane id="-E54_1" index="1" speed="13.89" length="190.63" shape="2518.68,1166.93 2365.28,1079.50"/>
        <lane id="-E54_2" index="2" speed="13.89" length="190.63" shape="2520.27,1164.15 2366.86,1076.72"/>
    </edge>
    <edge id="-E55" from="J45" to="J43" priority="-1">
        <lane id="-E55_0" index="0" speed="13.89" length="336.16" shape="2455.24,763.03 2367.88,1054.71"/>
        <lane id="-E55_1" index="1" speed="13.89" length="336.16" shape="2452.18,762.12 2364.82,1053.79"/>
        <lane id="-E55_2" index="2" speed="13.89" length="336.16" shape="2449.11,761.20 2361.75,1052.87"/>
    </edge>
    <edge id="-E56" from="clusterJ47_J58" to="right1" priority="-1" shape="2127.63,696.49 1500.00,600.00">
        <lane id="-E56_0" index="0" speed="13.89" length="638.61" shape="2119.03,703.26 1499.51,608.02"/>
        <lane id="-E56_1" index="1" speed="13.89" length="638.61" shape="2119.52,700.10 1500.00,604.86"/>
        <lane id="-E56_2" index="2" speed="13.89" length="638.61" shape="2120.00,696.94 1500.48,601.69"/>
    </edge>
    <edge id="-E56.635" from="J45" to="clusterJ47_J58" priority="-1" shape="2451.89,746.34 2127.63,696.49">
        <lane id="-E56.635_0" index="0" speed="13.89" length="324.51" shape="2434.65,751.78 2145.99,707.41"/>
        <lane id="-E56.635_1" index="1" speed="13.89" length="324.51" shape="2435.14,748.62 2146.48,704.24"/>
        <lane id="-E56.635_2" index="2" speed="13.89" length="324.51" shape="2435.62,745.46 2146.96,701.08"/>
    </edge>
    <edge id="-E57" from="J46" to="J45" priority="-1">
        <lane id="-E57_0" index="0" speed="13.89" length="227.47" shape="2675.73,787.63 2462.89,756.06"/>
        <lane id="-E57_1" index="1" speed="13.89" length="227.47" shape="2676.20,784.47 2463.36,752.89"/>
        <lane id="-E57_2" index="2" speed="13.89" length="227.47" shape="2676.67,781.30 2463.83,749.73"/>
    </edge>
    <edge id="-E58" from="clusterJ47_J58" to="J42" priority="-1" shape="2134.93,696.08 2085.45,897.50">
        <lane id="-E58_0" index="0" speed="13.89" length="206.74" shape="2138.88,713.53 2095.75,889.10"/>
        <lane id="-E58_1" index="1" speed="13.89" length="206.74" shape="2135.77,712.77 2092.64,888.34"/>
        <lane id="-E58_2" index="2" speed="13.89" length="206.74" shape="2132.66,712.01 2089.54,887.57"/>
    </edge>
    <edge id="-E59" from="clusterJ49_J57" to="right0" priority="-1" shape="2409.02,315.71 1500.00,300.00">
        <lane id="-E59_0" index="0" speed="13.89" length="912.04" shape="2398.26,323.53 1500.00,308.00"/>
        <lane id="-E59_1" index="1" speed="13.89" length="912.04" shape="2398.31,320.33 1500.06,304.80"/>
        <lane id="-E59_2" index="2" speed="13.89" length="912.04" shape="2398.37,317.13 1500.11,301.60"/>
    </edge>
    <edge id="-E59.909" from="J48" to="clusterJ49_J57" priority="-1" shape="2687.20,320.52 2409.02,315.71">
        <lane id="-E59.909_0" index="0" speed="13.89" length="275.36" shape="2687.06,328.52 2429.37,324.06"/>
        <lane id="-E59.909_1" index="1" speed="13.89" length="275.36" shape="2687.12,325.32 2429.43,320.86"/>
        <lane id="-E59.909_2" index="2" speed="13.89" length="275.36" shape="2687.17,322.12 2429.48,317.66"/>
    </edge>
    <edge id="-E6" from="J4" to="J5" priority="-1">
        <lane id="-E6_0" index="0" speed="13.89" length="587.92" shape="1476.22,2026.74 930.82,2130.55"/>
        <lane id="-E6_1" index="1" speed="13.89" length="587.92" shape="1475.62,2023.60 930.22,2127.41"/>
        <lane id="-E6_2" index="2" speed="13.89" length="587.92" shape="1475.02,2020.45 929.62,2124.26"/>
    </edge>
    <edge id="-E60" from="clusterJ49_J57" to="J45" priority="-1" shape="2414.78,314.81 2451.89,746.34">
        <lane id="-E60_0" index="0" speed="13.89" length="433.19" shape="2424.09,329.72 2458.47,729.50"/>
        <lane id="-E60_1" index="1" speed="13.89" length="433.19" shape="2420.90,329.99 2455.28,729.78"/>
        <lane id="-E60_2" index="2" speed="13.89" length="433.19" shape="2417.71,330.26 2452.10,730.05"/>
    </edge>
    <edge id="-E61" from="J50" to="clusterJ36_J55" priority="-1" shape="1639.36,-269.68 1187.70,-267.34">
        <lane id="-E61_0" index="0" speed="13.89" length="451.08" shape="1625.37,-261.61 1203.18,-259.42"/>
        <lane id="-E61_1" index="1" speed="13.89" length="451.08" shape="1625.35,-264.81 1203.16,-262.62"/>
        <lane id="-E61_2" index="2" speed="13.89" length="451.08" shape="1625.34,-268.01 1203.15,-265.82"/>
    </edge>
    <edge id="-E62" from="J51" to="J50" priority="-1">
        <lane id="-E62_0" index="0" speed="13.89" length="169.07" shape="1639.05,-438.94 1646.66,-284.09"/>
        <lane id="-E62_1" index="1" speed="13.89" length="169.07" shape="1635.85,-438.79 1643.47,-283.93"/>
        <lane id="-E62_2" index="2" speed="13.89" length="169.07" shape="1632.66,-438.63 1640.27,-283.77"/>
    </edge>
    <edge id="-E63" from="J52" to="J50" priority="-1">
        <lane id="-E63_0" index="0" speed="13.89" length="105.00" shape="1639.85,-164.38 1632.52,-254.98"/>
        <lane id="-E63_1" index="1" speed="13.89" length="105.00" shape="1643.04,-164.63 1635.71,-255.24"/>
        <lane id="-E63_2" index="2" speed="13.89" length="105.00" shape="1646.23,-164.89 1638.90,-255.50"/>
    </edge>
    <edge id="-E64" from="J53" to="J50" priority="-1">
        <lane id="-E64_0" index="0" speed="13.89" length="618.37" shape="2250.04,-280.07 1653.69,-262.11"/>
        <lane id="-E64_1" index="1" speed="13.89" length="618.37" shape="2249.95,-283.27 1653.60,-265.31"/>
        <lane id="-E64_2" index="2" speed="13.89" length="618.37" shape="2249.85,-286.47 1653.50,-268.51"/>
    </edge>
    <edge id="-E65" from="J53" to="clusterJ49_J57" priority="-1" shape="2257.45,-288.30 2414.78,314.81">
        <lane id="-E65_0" index="0" speed="13.89" length="623.27" shape="2267.12,-282.92 2418.58,297.68"/>
        <lane id="-E65_1" index="1" speed="13.89" length="623.27" shape="2264.03,-282.11 2415.48,298.49"/>
        <lane id="-E65_2" index="2" speed="13.89" length="623.27" shape="2260.93,-281.30 2412.39,299.30"/>
    </edge>
    <edge id="-E7" from="top1" to="clusterJ29_J7" priority="-1">
        <lane id="-E7_0" index="0" speed="13.89" length="515.55" shape="607.94,1501.05 567.52,1991.69"/>
        <lane id="-E7_1" index="1" speed="13.89" length="515.55" shape="604.75,1500.79 564.33,1991.42"/>
        <lane id="-E7_2" index="2" speed="13.89" length="515.55" shape="601.56,1500.52 561.14,1991.16"/>
    </edge>
    <edge id="-E7.369" from="J6" to="clusterJ29_J7" priority="-1" shape="876.30,2306.70 555.46,2286.97 555.96,2017.87">
        <lane id="-E7.369_0" index="0" speed="13.89" length="594.73" shape="867.53,2314.18 547.45,2294.49 547.95,2025.83"/>
        <lane id="-E7.369_1" index="1" speed="13.89" length="594.73" shape="867.72,2310.98 550.65,2291.48 551.15,2025.84"/>
        <lane id="-E7.369_2" index="2" speed="13.89" length="594.73" shape="867.92,2307.79 553.86,2288.47 554.35,2025.84"/>
    </edge>
    <edge id="-E8" from="J6" to="J5" priority="-1">
        <lane id="-E8_0" index="0" speed="13.89" length="185.07" shape="870.17,2296.94 903.84,2136.26"/>