<?xml version='1.0' encoding='UTF-8'?>
<routes xmlns:xsi="http://www.w3.org/2001/XMLSchema-instance" xsi:noNamespaceSchemaLocation="http://sumo.dlr.de/xsd/routes_file.xsd">
    <trip id="0" depart="0.00" from="-E39.240" to="right1D1" type="td_0" departLane="best" departSpeed="max" departPos="random" />
    <trip id="10" depart="5.00" from="-E45" to="E5" type="td_0" departLane="best" departSpeed="max" departPos="random" />
    <trip id="20" depart="10.00" from="E36" to="B3B2" type="td_0" departLane="best" departSpeed="max" departPos="random" />
    <trip id="30" depart="15.00" from="right1D1" to="C0B0" type="td_0" departLane="best" departSpeed="max" departPos="random" />
    <trip id="40" depart="20.00" from="D2right2" to="-E34" type="td_0" departLane="best" departSpeed="max" departPos="random" />
    <trip id="50" depart="25.00" from="A2A3" to="B0B1" type="td_0" departLane="best" departSpeed="max" departPos="random" />
    <trip id="60" depart="30.00" from="B3top1" to="A1B1" type="td_0" departLane="best" departSpeed="max" departPos="random" />
    <trip id="70" depart="37.00" from="B2B1" to="-E56" type="td_0" departLane="best" departSpeed="max" departPos="random" />
    <trip id="80" depart="41.00" from="-E17" to="C3B3" type="td_0" departLane="best" departSpeed="max" departPos="random" />
    <trip id="90" depart="45.00" from="B0C0" to="E15" type="td_0" departLane="best" departSpeed="max" departPos="random" />
    <trip id="100" depart="51.00" from="-E37.245" to="-E5" type="td_0" departLane="best" departSpeed="max" departPos="random" />
    <trip id="110" depart="56.00" from="E37.245" to="E24" type="td_0" departLane="best" departSpeed="max" departPos="random" />
    <trip id="120" depart="62.00" from="-E44" to="-E60" type="td_0" departLane="best" departSpeed="max" departPos="random" />
    <trip id="130" depart="68.00" from="-E24" to="-E58" type="td_0" departLane="best" departSpeed="max" departPos="random" />
    <trip id="140" depart="76.00" from="E24" to="A3left3" type="td_0" departLane="best" departSpeed="max" departPos="random" />
    <trip id="150" depart="80.00" from="E25.370" to="C3B3" type="td_0" departLane="best" departSpeed="max" departPos="random" />
    <trip id="160" depart="85.00" from="D1right1" to="B0bottom1" type="td_0" departLane="best" departSpeed="max" departPos="random" />
    <trip id="170" depart="92.00" from="D2C2" to="E21" type="td_0" departLane="best" departSpeed="max" departPos="random" />
    <trip id="180" depart="98.00" from="E56.635" to="C1D1" type="td_0" departLane="best" departSpeed="max" departPos="random" />
    <trip id="190" depart="105.00" from="C1B1" to="E54" type="td_0" departLane="best" departSpeed="max" departPos="random" />
    <trip id="200" depart="109.00" from="A3B3" to="B2B3" type="td_0" departLane="best" departSpeed="max" departPos="random" />
    <trip id="210" depart="115.00" from="-E50" to="E11" type="td_0" departLane="best" departSpeed="max" departPos="random" />
    <trip id="220" depart="122.00" from="-E58" to="-E6" type="td_0" departLane="best" departSpeed="max" departPos="random" />
    <trip id="230" depart="128.00" from="-E55" to="right1D1" type="td_0" departLane="best" departSpeed="max" departPos="random" />
    <trip id="240" depart="135.00" from="B0C0" to="B2B3" type="td_0" departLane="best" departSpeed="max" departPos="random" />
    <trip id="250" depart="141.00" from="-E59.909" to="E43" type="td_0" departLane="best" departSpeed="max" departPos="random" />
    <trip id="260" depart="145.00" from="-E57" to="E32" type="td_0" departLane="best" departSpeed="max" departPos="random" />
    <trip id="270" depart="147.00" from="A0B0" to="D2C2" type="td_0" departLane="best" departSpeed="max" departPos="random" />
    <trip id="280" depart="154.00" from="C3D3" to="D2D1" type="td_0" departLane="best" departSpeed="max" departPos="random" />
    <trip id="290" depart="157.00" from="E11.252" to="-E33" type="td_0" departLane="best" departSpeed="max" departPos="random" />
    <trip id="300" depart="161.00" from="top3D3" to="E10" type="td_0" departLane="best" departSpeed="max" departPos="random" />
    <trip id="310" depart="165.00" from="D2right2" to="E32" type="td_0" departLane="best" departSpeed="max" departPos="random" />
    <trip id="320" depart="170.00" from="-E17" to="A1B1" type="td_0" departLane="best" departSpeed="max" departPos="random" />
    <trip id="330" depart="174.00" from="A0bottom0" to="E36" type="td_0" departLane="best" departSpeed="max" departPos="random" />
    <trip id="340" depart="178.00" from="E26" to="top0A3" type="td_0" departLane="best" departSpeed="max" departPos="random" />
    <trip id="350" depart="181.00" from="E7.369" to="-E47" type="td_0" departLane="best" departSpeed="max" departPos="random" />
    <trip id="360" depart="185.00" from="E51" to="E57" type="td_0" departLane="best" departSpeed="max" departPos="random" />
    <trip id="370" depart="188.00" from="E17" to="E49" type="td_0" departLane="best" departSpeed="max" departPos="random" />
    <trip id="380" depart="192.00" from="D1D0" to="left2A2" type="td_0" departLane="best" departSpeed="max" departPos="random" />
    <trip id="390" depart="195.00" from="E65" to="-E6" type="td_0" departLane="best" departSpeed="max" departPos="random" />
    <trip id="400" depart="198.00" from="E15" to="E26" type="td_0" departLane="best" departSpeed="max" departPos="random" />
    <trip id="410" depart="202.00" from="E16" to="E8" type="td_0" departLane="best" departSpeed="max" departPos="random" />
    <trip id="420" depart="206.00" from="-E41.262" to="D1right1" type="td_0" departLane="best" departSpeed="max" departPos="random" />
    <trip id="430" depart="210.00" from="-E43" to="E36" type="td_0" departLane="best" departSpeed="max" departPos="random" />
    <trip id="440" depart="212.00" from="-E27" to="E6" type="td_0" departLane="best" departSpeed="max" departPos="random" />
    <trip id="450" depart="215.00" from="-E10" to="-E13" type="td_0" departLane="best" departSpeed="max" departPos="random" />
    <trip id="460" depart="219.00" from="-E11" to="right2D2" type="td_0" departLane="best" departSpeed="max" departPos="random" />
    <trip id="470" depart="222.00" from="D2right2" to="A0A1" type="td_0" departLane="best" departSpeed="max" departPos="random" />
    <trip id="480" depart="226.00" from="-E48" to="A2B2" type="td_0" departLane="best" departSpeed="max" departPos="random" />
    <trip id="490" depart="229.00" from="E26" to="-E37" type="td_0" departLane="best" departSpeed="max" departPos="random" />
    <trip id="500" depart="231.00" from="E19" to="E6" type="td_0" departLane="best" departSpeed="max" departPos="random" />
    <trip id="510" depart="234.00" from="E19" to="D1D2" type="td_0" departLane="best" departSpeed="max" departPos="random" />
    <trip id="520" depart="237.00" from="-E14" to="E48" type="td_0" departLane="best" departSpeed="max" departPos="random" />
    <trip id="530" depart="241.00" from="-E48" to="D0C0" type="td_0" departLane="best" departSpeed="max" departPos="random" />
    <trip id="540" depart="246.00" from="-E56.635" to="C2B2" type="td_0" departLane="best" departSpeed="max" departPos="random" />
    <trip id="550" depart="249.00" from="-E7" to="left0A0" type="td_0" departLane="best" departSpeed="max" departPos="random" />
    <trip id="560" depart="253.00" from="-E16" to="E29" type="td_0" departLane="best" departSpeed="max" departPos="random" />
    <trip id="570" depart="256.00" from="-E7" to="E60" type="td_0" departLane="best" departSpeed="max" departPos="random" />
    <trip id="580" depart="261.00" from="top3D3" to="A2left2" type="td_0" departLane="best" departSpeed="max" departPos="random" />
    <trip id="590" depart="264.00" from="-E13" to="E36" type="td_0" departLane="best" departSpeed="max" departPos="random" />
    <trip id="600" depart="267.00" from="E27" to="A3top0" type="td_0" departLane="best" departSpeed="max" departPos="random" />
    <trip id="610" depart="271.00" from="E52" to="-E8" type="td_0" departLane="best" departSpeed="max" departPos="random" />
    <trip id="620" depart="274.00" from="-E65" to="bottom1B0" type="td_0" departLane="best" departSpeed="max" departPos="random" />
    <trip id="630" depart="277.00" from="E10" to="A0B0" type="td_0" departLane="best" departSpeed="max" departPos="random" />
    <trip id="640" depart="281.00" from="E5" to="E28" type="td_0" departLane="best" departSpeed="max" departPos="random" />
    <trip id="650" depart="285.00" from="C3top2" to="E65" type="td_0" departLane="best" departSpeed="max" departPos="random" />
    <trip id="660" depart="290.00" from="E13" to="-E59" type="td_0" departLane="best" departSpeed="max" departPos="random" />
    <trip id="670" depart="292.00" from="E53" to="-E56" type="td_0" departLane="best" departSpeed="max" departPos="random" />
    <trip id="680" depart="295.00" from="E43" to="E61" type="td_0" departLane="best" departSpeed="max" departPos="random" />
    <trip id="690" depart="297.00" from="E37" to="-E25.370" type="td_0" departLane="best" departSpeed="max" departPos="random" />
    <trip id="700" depart="302.00" from="B0A0" to="B2B1" type="td_0" departLane="best" departSpeed="max" departPos="random" />
    <trip id="710" depart="304.00" from="-E59.909" to="A1A0" type="td_0" departLane="best" departSpeed="max" departPos="random" />
    <trip id="720" depart="306.00" from="D2D1" to="B2C2" type="td_0" departLane="best" departSpeed="max" departPos="random" />
    <trip id="730" depart="309.00" from="bottom1B0" to="E46" type="td_0" departLane="best" departSpeed="max" departPos="random" />
    <trip id="740" depart="312.00" from="B2B1" to="E41.262" type="td_0" departLane="best" departSpeed="max" departPos="random" />
    <trip id="750" depart="316.00" from="C3B3" to="E29" type="td_0" departLane="best" departSpeed="max" departPos="random" />
    <trip id="760" depart="319.00" from="A0A1" to="A3top0" type="td_0" departLane="best" departSpeed="max" departPos="random" />
    <trip id="770" depart="321.00" from="E32" to="-E39" type="td_0" departLane="best" departSpeed="max" departPos="random" />
    <trip id="780" depart="324.00" from="-E47" to="C1C0" type="td_0" departLane="best" departSpeed="max" departPos="random" />
    <trip id="790" depart="326.00" from="-E7.369" to="E12" type="td_0" departLane="best" departSpeed="max" departPos="random" />
    <trip id="800" depart="329.00" from="C1C0" to="B2B1" type="td_0" departLane="best" departSpeed="max" departPos="random" />
    <trip id="810" depart="332.00" from="-E65" to="-E47" type="td_0" departLane="best" departSpeed="max" departPos="random" />
    <trip id="820" depart="335.00" from="D0C0" to="E15.181" type="td_0" departLane="best" departSpeed="max" departPos="random" />
    <trip id="830" depart="337.00" from="-E32" to="D3right3" type="td_0" departLane="best" departSpeed="max" departPos="random" />
    <trip id="840" depart="340.00" from="E37.245" to="E23" type="td_0" departLane="best" departSpeed="max" departPos="random" />
    <trip id="850" depart="342.00" from="C2C3" to="E42" type="td_0" departLane="best" departSpeed="max" departPos="random" />
    <trip id="860" depart="345.00" from="-E53" to="E40" type="td_0" departLane="best" departSpeed="max" departPos="random" />
    <trip id="870" depart="347.00" from="E35" to="A2left2" type="td_0" departLane="best" departSpeed="max" departPos="random" />
    <trip id="880" depart="350.00" from="A3left3" to="A2left2" type="td_0" departLane="best" departSpeed="max" departPos="random" />
    <trip id="890" depart="354.00" from="B3C3" to="E44" type="td_0" departLane="best" departSpeed="max" departPos="random" />
    <trip id="900" depart="356.00" from="E47" to="E30" type="td_0" departLane="best" departSpeed="max" departPos="random" />
    <trip id="910" depart="358.00" from="-E19" to="A1A0" type="td_0" departLane="best" departSpeed="max" departPos="random" />
    <trip id="920" depart="360.00" from="E34" to="E37" type="td_0" departLane="best" departSpeed="max" departPos="random" />
    <trip id="930" depart="362.00" from="-E21" to="right0D0" type="td_0" departLane="best" departSpeed="max" departPos="random" />
    <trip id="940" depart="366.00" from="E48" to="right3D3" type="td_0" departLane="best" departSpeed="max" departPos="random" />
    <trip id="950" depart="368.00" from="-E50" to="E25.370" type="td_0" departLane="best" departSpeed="max" departPos="random" />
    <trip id="960" depart="371.00" from="-E29" to="E55" type="td_0" departLane="best" departSpeed="max" departPos="random" />
    <trip id="970" depart="374.00" from="E29" to="C2C3" type="td_0" departLane="best" departSpeed="max" departPos="random" />
    <trip id="980" depart="378.00" from="-E34" to="E45" type="td_0" departLane="best" departSpeed="max" departPos="random" />
    <trip id="990" depart="380.00" from="D2right2" to="-E15.181" type="td_0" departLane="best" departSpeed="max" departPos="random" />
    <trip id="1000" depart="383.00" from="B3A3" to="E22" type="td_0" departLane="best" departSpeed="max" departPos="random" />
    <trip id="1010" depart="385.00" from="top3D3" to="left0A0" type="td_0" departLane="best" departSpeed="max" departPos="random" />
    <trip id="1020" depart="388.00" from="E58" to="B3top1" type="td_0" departLane="best" departSpeed="max" departPos="random" />
    <trip id="1030" depart="390.00" from="E31" to="C1B1" type="td_0" departLane="best" departSpeed="max" departPos="random" />
    <trip id="1040" depart="393.00" from="E10" to="top2C3" type="td_0" departLane="best" departSpeed="max" departPos="random" />
    <trip id="1050" depart="396.00" from="E52" to="D3right3" type="td_0" departLane="best" departSpeed="max" departPos="random" />
    <trip id="1060" depart="398.00" from="right0D0" to="-E6" type="td_0" departLane="best" departSpeed="max" departPos="random" />
    <trip id="1070" depart="401.00" from="-E8" to="B0C0" type="td_0" departLane="best" departSpeed="max" departPos="random" />
    <trip id="1080" depart="404.00" from="E7" to="E8" type="td_0" departLane="best" departSpeed="max" departPos="random" />
    <trip id="1090" depart="406.00" from="B1B0" to="-E43" type="td_0" departLane="best" departSpeed="max" departPos="random" />
    <trip id="1100" depart="410.00" from="E61" to="-E30" type="td_0" departLane="best" departSpeed="max" departPos="random" />
    <trip id="1110" depart="412.00" from="-E30" to="E31" type="td_0" departLane="best" departSpeed="max" departPos="random" />
    <trip id="1120" depart="414.00" from="A3B3" to="A1A2" type="td_0" departLane="best" departSpeed="max" departPos="random" />
    <trip id="1130" depart="418.00" from="C2C1" to="E15" type="td_0" departLane="best" departSpeed="max" departPos="random" />
    <trip id="1140" depart="420.00" from="E26" to="-E25.370" type="td_0" departLane="best" departSpeed="max" departPos="random" />
    <trip id="1150" depart="423.00" from="-E37" to="-E52" type="td_0" departLane="best" departSpeed="max" departPos="random" />
    <trip id="1160" depart="428.00" from="-E27" to="E51" type="td_0" departLane="best" departSpeed="max" departPos="random" />
    <trip id="1170" depart="431.00" from="A3left3" to="C1D1" type="td_0" departLane="best" departSpeed="max" departPos="random" />
    <trip id="1180" depart="435.00" from="E10" to="-E25" type="td_0" departLane="best" departSpeed="max" departPos="random" />
    <trip id="1190" depart="437.00" from="-E49" to="D2right2" type="td_0" departLane="best" departSpeed="max" departPos="random" />
    <trip id="1200" depart="440.00" from="-E30" to="E30" type="td_0" departLane="best" departSpeed="max" departPos="random" />
    <trip id="1210" depart="442.00" from="B2B3" to="-E37" type="td_0" departLane="best" departSpeed="max" departPos="random" />
    <trip id="1220" depart="444.00" from="E49" to="E6" type="td_0" departLane="best" departSpeed="max" departPos="random" />
    <trip id="1230" depart="447.00" from="B0C0" to="B1B0" type="td_0" departLane="best" departSpeed="max" departPos="random" />
    <trip id="1240" depart="449.00" from="-E33" to="E34" type="td_0" departLane="best" departSpeed="max" departPos="random" />
    <trip id="1250" depart="452.00" from="-E30" to="E8" type="td_0" departLane="best" departSpeed="max" departPos="random" />
    <trip id="1260" depart="454.00" from="top3D3" to="E17" type="td_0" departLane="best" departSpeed="max" departPos="random" />
    <trip id="1270" depart="456.00" from="-E24" to="-E42" type="td_0" departLane="best" departSpeed="max" departPos="random" />
    <trip id="1280" depart="458.00" from="E58" to="B3A3" type="td_0" departLane="best" departSpeed="max" departPos="random" />
    <trip id="1290" depart="460.00" from="C0B0" to="C0C1" type="td_0" departLane="best" departSpeed="max" departPos="random" />
    <trip id="1300" depart="463.00" from="E51" to="left2A2" type="td_0" departLane="best" departSpeed="max" departPos="random" />
    <trip id="1310" depart="466.00" from="D2D3" to="E53" type="td_0" departLane="best" departSpeed="max" departPos="random" />
    <trip id="1320" depart="468.00" from="-E20" to="E19" type="td_0" departLane="best" departSpeed="max" departPos="random" />
    <trip id="1330" depart="470.00" from="right2D2" to="C3top2" type="td_0" departLane="best" departSpeed="max" departPos="random" />
    <trip id="1340" depart="473.00" from="E41" to="E51" type="td_0" departLane="best" departSpeed="max" departPos="random" />
    <trip id="1350" depart="474.00" from="D1D2" to="E30" type="td_0" departLane="best" departSpeed="max" departPos="random" />
    <trip id="1360" depart="477.00" from="E60" to="E24" type="td_0" departLane="best" departSpeed="max" departPos="random" />
    <trip id="1370" depart="480.00" from="E37" to="E44" type="td_0" departLane="best" departSpeed="max" departPos="random" />
    <trip id="1380" depart="482.00" from="E61" to="B2B3" type="td_0" departLane="best" departSpeed="max" departPos="random" />
    <trip id="1390" depart="485.00" from="-E51" to="-E51" type="td_0" departLane="best" departSpeed="max" departPos="random" />
    <trip id="1400" depart="487.00" from="B0B1" to="-E45" type="td_0" departLane="best" departSpeed="max" departPos="random" />
    <trip id="1410" depart="489.00" from="C3D3" to="top1B3" type="td_0" departLane="best" departSpeed="max" departPos="random" />
    <trip id="1420" depart="492.00" from="E30" to="E51" type="td_0" departLane="best" departSpeed="max" departPos="random" />
    <trip id="1430" depart="494.00" from="-E15" to="-E65" type="td_0" departLane="best" departSpeed="max" departPos="random" />
    <trip id="1440" depart="498.00" from="E65" to="D2right2" type="td_0" departLane="best" departSpeed="max" departPos="random" />
    <trip id="1450" depart="500.00" from="E60" to="E21" type="td_0" departLane="best" departSpeed="max" departPos="random" />
    <trip id="1460" depart="501.00" from="-E63" to="B0bottom1" type="td_0" departLane="best" departSpeed="max" departPos="random" />
    <trip id="1470" depart="503.00" from="E59" to="E45" type="td_0" departLane="best" departSpeed="max" departPos="random" />
    <trip id="1480" depart="505.00" from="-E53" to="-E25" type="td_0" departLane="best" departSpeed="max" departPos="random" />
    <trip id="1490" depart="508.00" from="right0D0" to="E14" type="td_0" departLane="best" departSpeed="max" departPos="random" />
    <trip id="1500" depart="510.00" from="-E36" to="-E58" type="td_0" departLane="best" departSpeed="max" departPos="random" />
    <trip id="1510" depart="512.00" from="-E38" to="A3top0" type="td_0" departLane="best" departSpeed="max" departPos="random" />
    <trip id="1520" depart="515.00" from="-E33" to="-E52" type="td_0" departLane="best" departSpeed="max" departPos="random" />
    <trip id="1530" depart="518.00" from="E22" to="-E6" type="td_0" departLane="best" departSpeed="max" departPos="random" />
    <trip id="1540" depart="521.00" from="A0B0" to="right2D2" type="td_0" departLane="best" departSpeed="max" departPos="random" />
    <trip id="1550" depart="523.00" from="E43" to="-E39" type="td_0" departLane="best" departSpeed="max" departPos="random" />
    <trip id="1560" depart="526.00" from="D0C0" to="E24" type="td_0" departLane="best" departSpeed="max" departPos="random" />
    <trip id="1570" depart="528.00" from="D0D1" to="E5" type="td_0" departLane="best" departSpeed="max" departPos="random" />
    <trip id="1580" depart="531.00" from="E6" to="E51" type="td_0" departLane="best" departSpeed="max" departPos="random" />
    <trip id="1590" depart="533.00" from="E24" to="D1D0" type="td_0" departLane="best" departSpeed="max" departPos="random" />
    <trip id="1600" depart="535.00" from="A3left3" to="E64" type="td_0" departLane="best" departSpeed="max" departPos="random" />
    <trip id="1610" depart="537.00" from="D2D1" to="E15.181" type="td_0" departLane="best" departSpeed="max" departPos="random" />
    <trip id="1620" depart="540.00" from="right1D1" to="D0D1" type="td_0" departLane="best" departSpeed="max" departPos="random" />
    <trip id="1630" depart="544.00" from="-E52" to="E33" type="td_0" departLane="best" departSpeed="max" departPos="random" />
    <trip id="1640" depart="546.00" from="bottom1B0" to="-E25.370" type="td_0" departLane="best" departSpeed="max" departPos="random" />
    <trip id="1650" depart="549.00" from="-E47" to="B2B1" type="td_0" departLane="best" departSpeed="max" departPos="random" />
    <trip id="1660" depart="551.00" from="E41" to="E38" type="td_0" departLane="best" departSpeed="max" departPos="random" />
    <trip id="1670" depart="554.00" from="A1A0" to="E14" type="td_0" departLane="best" departSpeed="max" departPos="random" />
    <trip id="1680" depart="557.00" from="C3B3" to="right1D1" type="td_0" departLane="best" departSpeed="max" departPos="random" />
    <trip id="1690" depart="559.00" from="right3D3" to="-E25.370" type="td_0" departLane="best" departSpeed="max" departPos="random" />
    <trip id="1700" depart="561.00" from="C1B1" to="E57" type="td_0" departLane="best" departSpeed="max" departPos="random" />
    <trip id="1710" depart="562.00" from="A2A1" to="B3C3" type="td_0" departLane="best" departSpeed="max" departPos="random" />
    <trip id="1720" depart="565.00" from="-E40" to="left0A0" type="td_0" departLane="best" departSpeed="max" departPos="random" />
    <trip id="1730" depart="568.00" from="A0left0" to="-E53" type="td_0" departLane="best" departSpeed="max" departPos="random" />
    <trip id="1740" depart="570.00" from="E27" to="right0D0" type="td_0" departLane="best" departSpeed="max" departPos="random" />
    <trip id="1750" depart="574.00" from="-E25.370" to="E54" type="td_0" departLane="best" departSpeed="max" departPos="random" />
    <trip id="1760" depart="576.00" from="D1D2" to="E33" type="td_0" departLane="best" departSpeed="max" departPos="random" />
    <trip id="1770" depart="578.00" from="E7.369" to="E40" type="td_0" departLane="best" departSpeed="max" departPos="random" />
    <trip id="1780" depart="579.00" from="-E4" to="-E37.245" type="td_0" departLane="best" departSpeed="max" departPos="random" />
    <trip id="1790" depart="581.00" from="B3B2" to="top0A3" type="td_0" departLane="best" departSpeed="max" departPos="random" />
    <trip id="1800" depart="583.00" from="-E46" to="E49" type="td_0" departLane="best" departSpeed="max" departPos="random" />
    <trip id="1810" depart="585.00" from="E32" to="E22" type="td_0" departLane="best" departSpeed="max" departPos="random" />
    <trip id="1820" depart="587.00" from="C0B0" to="-E8" type="td_0" departLane="best" departSpeed="max" departPos="random" />
    <trip id="1830" depart="589.00" from="B2A2" to="D0D1" type="td_0" departLane="best" departSpeed="max" departPos="random" />
    <trip id="1840" depart="591.00" from="C0C1" to="E58" type="td_0" departLane="best" departSpeed="max" departPos="random" />
    <trip id="1850" depart="593.00" from="E58" to="-E39" type="td_0" departLane="best" departSpeed="max" departPos="random" />
    <trip id="1860" depart="596.00" from="A0bottom0" to="-E16" type="td_0" departLane="best" departSpeed="max" departPos="random" />
    <trip id="1870" depart="597.00" from="-E49" to="E41" type="td_0" departLane="best" departSpeed="max" departPos="random" />
    <trip id="1880" depart="599.00" from="E61" to="B1B0" type="td_0" departLane="best" departSpeed="max" departPos="random" />
    <trip id="1890" depart="601.00" from="E11" to="E7.369" type="td_0" departLane="best" departSpeed="max" departPos="random" />
    <trip id="1900" depart="603.00" from="-E8" to="E47" type="td_0" departLane="best" departSpeed="max" departPos="random" />
    <trip id="1910" depart="605.00" from="B1C1" to="E26" type="td_0" departLane="best" departSpeed="max" departPos="random" />
    <trip id="1920" depart="608.00" from="E55" to="-E65" type="td_0" departLane="best" departSpeed="max" departPos="random" />
    <trip id="1930" depart="610.00" from="-E17" to="E18" type="td_0" departLane="best" departSpeed="max" departPos="random" />
    <trip id="1940" depart="612.00" from="D3C3" to="E56.635" type="td_0" departLane="best" departSpeed="max" departPos="random" />
    <trip id="1950" depart="614.00" from="-E26" to="A1A0" type="td_0" departLane="best" departSpeed="max" departPos="random" />
    <trip id="1960" depart="616.00" from="A1A0" to="E62" type="td_0" departLane="best" departSpeed="max" departPos="random" />
    <trip id="1970" depart="619.00" from="E52" to="D0right0" type="td_0" departLane="best" departSpeed="max" departPos="random" />
    <trip id="1980" depart="621.00" from="-E59.909" to="E21" type="td_0" departLane="best" departSpeed="max" departPos="random" />
    <trip id="1990" depart="622.00" from="E21" to="E35" type="td_0" departLane="best" departSpeed="max" departPos="random" />
    <trip id="2000" depart="624.00" from="-E61" to="E5" type="td_0" departLane="best" departSpeed="max" departPos="random" />
    <trip id="2010" depart="626.00" from="-E40" to="left1A1" type="td_0" departLane="best" departSpeed="max" departPos="random" />
    <trip id="2020" depart="629.00" from="-E16" to="B2B1" type="td_0" departLane="best" departSpeed="max" departPos="random" />
    <trip id="2030" depart="631.00" from="A0left0" to="E57" type="td_0" departLane="best" departSpeed="max" departPos="random" />
    <trip id="2040" depart="633.00" from="-E7" to="E11.252" type="td_0" departLane="best" departSpeed="max" departPos="random" />
    <trip id="2050" depart="634.00" from="bottom0A0" to="E41.262" type="td_0" departLane="best" departSpeed="max" departPos="random" />
    <trip id="2060" depart="636.00" from="E35" to="E39.240" type="td_0" departLane="best" departSpeed="max" departPos="random" />
    <trip id="2070" depart="639.00" from="-E28" to="E39.240" type="td_0" departLane="best" departSpeed="max" departPos="random" />
    <trip id="2080" depart="641.00" from="right1D1" to="right0D0" type="td_0" departLane="best" departSpeed="max" departPos="random" />
    <trip id="2090" depart="643.00" from="-E41" to="-E52" type="td_0" departLane="best" departSpeed="max" departPos="random" />
    <trip id="2100" depart="646.00" from="-E37.245" to="B3C3" type="td_0" departLane="best" departSpeed="max" departPos="random" />
    <trip id="2110" depart="648.00" from="E55" to="bottom3D0" type="td_0" departLane="best" departSpeed="max" departPos="random" />
    <trip id="2120" depart="650.00" from="E35" to="-E11.252" type="td_0" departLane="best" departSpeed="max" departPos="random" />
    <trip id="2130" depart="652.00" from="-E15" to="-E42" type="td_0" departLane="best" departSpeed="max" departPos="random" />
    <trip id="2140" depart="655.00" from="E11.252" to="D0bottom3" type="td_0" departLane="best" departSpeed="max" departPos="random" />
    <trip id="2150" depart="657.00" from="C0B0" to="C2C1" type="td_0" departLane="best" departSpeed="max" departPos="random" />
    <trip id="2160" depart="659.00" from="A3top0" to="C0B0" type="td_0" departLane="best" departSpeed="max" departPos="random" />
    <trip id="2170" depart="661.00" from="A2left2" to="A3A2" type="td_0" departLane="best" departSpeed="max" departPos="random" />
    <trip id="2180" depart="663.00" from="A1A2" to="-E23" type="td_0" departLane="best" departSpeed="max" departPos="random" />
    <trip id="2190" depart="664.00" from="A2A3" to="E37.245" type="td_0" departLane="best" departSpeed="max" departPos="random" />
    <trip id="2200" depart="666.00" from="E51" to="-E56" type="td_0" departLane="best" departSpeed="max" departPos="random" />
    <trip id="2210" depart="669.00" from="-E24" to="B0A0" type="td_0" departLane="best" departSpeed="max" departPos="random" />
    <trip id="2220" depart="671.00" from="E16" to="E16" type="td_0" departLane="best" departSpeed="max" departPos="random" />
    <trip id="2230" depart="672.00" from="E8" to="E5" type="td_0" departLane="best" departSpeed="max" departPos="random" />
    <trip id="2240" depart="674.00" from="E38" to="B0A0" type="td_0" departLane="best" departSpeed="max" departPos="random" />
    <trip id="2250" depart="676.00" from="-E32" to="E57" type="td_0" departLane="best" departSpeed="max" departPos="random" />
    <trip id="2260" depart="678.00" from="top0A3" to="E47" type="td_0" departLane="best" departSpeed="max" departPos="random" />
    <trip id="2270" depart="679.00" from="-E22" to="C0D0" type="td_0" departLane="best" departSpeed="max" departPos="random" />
    <trip id="2280" depart="681.00" from="-E15" to="-E56.635" type="td_0" departLane="best" departSpeed="max" departPos="random" />
    <trip id="2290" depart="683.00" from="E56" to="-E41" type="td_0" departLane="best" departSpeed="max" departPos="random" />
    <trip id="2300" depart="685.00" from="D0D1" to="E28" type="td_0" departLane="best" departSpeed="max" departPos="random" />
    <trip id="2310" depart="687.00" from="E25.370" to="B1A1" type="td_0" departLane="best" departSpeed="max" departPos="random" />