<?xml version="1.0" encoding="UTF-8"?>

<!-- generated on 2026-03-01 13:57:48.460622 by Eclipse SUMO randomTrips.py v1_25_0+0000-ac6c5a6752d
<configuration>
    <net-file value="grid4x4.net.xml"/>
    <output-trip-file value="grid4x4-heavy-trips.rou.xml"/>
    <trip-attributes value="type=td_0 departLane=best departSpeed=max departPos=random"/>
    <lanes value="True"/>
    <seed value="124"/>
    <insertion-rate value="60000.0"/>
    <random-depart value="True"/>
    <binomial value="10"/>
</configuration>
-->

<!-- generated on 2026-02-02 16:19:18.663842 by Eclipse SUMO randomTrips.py UNKNOWN
<configuration>
    <net-file value="grid4x4.net.xml"/>
    <output-trip-file value="grid4x4-demo.rou.xml"/>
    <trip-attributes value="type=&quot;td_0&quot; departLane=&quot;best&quot; departSpeed=&quot;max&quot; departPos=&quot;random&quot;"/>
    <lanes value="True"/>
    <seed value="124"/>
    <insertion-rate value="20000.0"/>
    <random-depart value="True"/>
    <binomial value="10"/>
</configuration>
-->

<!-- generated on 2026-02-02T16:19:18.187144+07:00 by Eclipse SUMO duarouter 1.25.0
<duarouterConfiguration xmlns:xsi="http://www.w3.org/2001/XMLSchema-instance" xsi:noNamespaceSchemaLocation="http://sumo.dlr.de/xsd/duarouterConfiguration.xsd">

    <input>
        <net-file value="grid4x4.net.xml"/>
        <route-files value="grid4x4-demo.rou.xml"/>
    </input>

    <output>
        <output-file value="routes.rou.xml"/>
        <alternatives-output value="NUL"/>
    </output>

    <time>
        <begin value="0.0"/>
        <end value="3600.0"/>
    </time>

    <report>
        <no-warnings value="true"/>
        <ignore-errors value="true"/>
        <no-step-log value="true"/>
    </report>

</duarouterConfiguration>
-->

<routes xmlns:xsi="http://www.w3.org/2001/XMLSchema-instance" xsi:noNamespaceSchemaLocation="http://sumo.dlr.de/xsd/routes_file.xsd">
    <vehicle id="0" type="td_0" depart="0.00" departLane="best" departPos="random" departSpeed="max">
        <route edges="-E41 bottom3D0 D0D1 D1right1 E56 E56.635 E60 -E59 right0D0"/>
    </vehicle>
    <vehicle id="1" type="td_0" depart="0.00" departLane="best" departPos="random" departSpeed="max">
        <route edges="E38 -E37 bottom1B0 B0A0 A0A1 A1A2 A2A3 A3top0 E11 E11.252 E13 E17 -E16"/>
    </vehicle>
    <vehicle id="2" type="td_0" depart="0.00" departLane="best" departPos="random" departSpeed="max">
        <route edges="right1D1 D1C1 C1C2 C2C3 C3top2 E5"/>
    </vehicle>
    <vehicle id="3" type="td_0" depart="0.00" departLane="best" departPos="random" departSpeed="max">
        <route edges="B2C2 C2C1 C1B1 B1B2 B2B3 B3C3"/>
    </vehicle>
    <vehicle id="4" type="td_0" depart="0.00" departLane="best" departPos="random" departSpeed="max">
        <route edges="-E27 -E25.370 -E26 -E21 -E20 left2A2 A2A1"/>
    </vehicle>
    <vehicle id="5" type="td_0" depart="0.00" departLane="best" departPos="random" departSpeed="max">
        <route edges="-E43 -E32 -E31 bottom0A0 A0A1 A1A2 A2B2 B2C2 C2D2 D2right2 E51 E58"/>
    </vehicle>
    <vehicle id="6" type="td_0" depart="0.00" departLane="best" departPos="random" departSpeed="max">
        <route edges="-E60 -E56.635 -E58 -E51 right2D2 D2C2 C2B2 B2B1"/>
    </vehicle>
    <vehicle id="7" type="td_0" depart="0.00" departLane="best" departPos="random" departSpeed="max">
        <route edges="E64 -E65 -E59 right0D0 D0C0"/>
    </vehicle>
    <vehicle id="8" type="td_0" depart="1.00" departLane="best" departPos="random" departSpeed="max">
        <route edges="C3top2 E5 E10 E7 top1B3 B3C3 C3C2 C2C1"/>
    </vehicle>
    <vehicle id="9" type="td_0" depart="1.00" departLane="best" departPos="random" departSpeed="max">
        <route edges="-E33 -E31 bottom0A0 A0B0 B0C0 C0D0 D0D1 D1C1"/>
    </vehicle>
    <vehicle id="10" type="td_0" depart="1.00" departLane="best" departPos="random" departSpeed="max">
        <route edges="C1B1 B1B2 B2B3 B3C3 C3D3 D3right3 E47"/>
    </vehicle>
    <vehicle id="11" type="td_0" depart="1.00" departLane="best" departPos="random" departSpeed="max">
        <route edges="A3B3 B3B2 B2B1 B1B0 B0bottom1 E37"/>
    </vehicle>
    <vehicle id="12" type="td_0" depart="2.00" departLane="best" departPos="random" departSpeed="max">
        <route edges="C2B2 B2A2 A2left2 E20 E21 E26 E25.370 E27 -E23"/>
    </vehicle>
    <vehicle id="13" type="td_0" depart="2.00" departLane="best" departPos="random" departSpeed="max">
        <route edges="C1D1 D1D0 D0C0 C0B0 B0A0 A0left0 E29 -E30 E25.370 E28"/>
    </vehicle>
    <vehicle id="14" type="td_0" depart="2.00" departLane="best" departPos="random" departSpeed="max">
        <route edges="B2C2 C2C3 C3D3 D3D2 D2C2 C2B2"/>
    </vehicle>
    <vehicle id="15" type="td_0" depart="2.00" departLane="best" departPos="random" departSpeed="max">
        <route edges="A3A2 A2B2 B2B1 B1B0 B0bottom1 E37 E40 E42 -E41"/>
    </vehicle>
    <vehicle id="16" type="td_0" depart="3.00" departLane="best" departPos="random" departSpeed="max">
        <route edges="-E63 -E61 -E42 -E40 -E38 -E34 E33 -E35 -E30 -E26 -E21 -E20 left2A2"/>
    </vehicle>
    <vehicle id="17" type="td_0" depart="3.00" departLane="best" departPos="random" departSpeed="max">
        <route edges="-E37.245 -E37 bottom1B0 B0B1 B1C1 C1C2 C2B2"/>
    </vehicle>
    <vehicle id="18" type="td_0" depart="3.00" departLane="best" departPos="random" departSpeed="max">
        <route edges="D2C2 C2B2 B2A2 A2left2 E20 E21 E26 E25.370 E27 -E23 -E22"/>
    </vehicle>
    <vehicle id="19" type="td_0" depart="3.00" departLane="best" departPos="random" departSpeed="max">
        <route edges="-E30 -E26 -E21 -E20 left2A2 A2B2 B2C2 C2D2 D2right2 E51 E53 -E52"/>
    </vehicle>
    <vehicle id="20" type="td_0" depart="3.00" departLane="best" departPos="random" departSpeed="max">
        <route edges="right1D1 D1D2 D2right2 E51 E53 E55 -E56.635"/>
    </vehicle>
    <vehicle id="21" type="td_0" depart="4.00" departLane="best" departPos="random" departSpeed="max">
        <route edges="-E15 left3A3 A3B3 B3C3 C3D3 D3D2 D2D1 D1D0 D0bottom3 E41 -E42"/>
    </vehicle>
    <vehicle id="22" type="td_0" depart="4.00" departLane="best" departPos="random" departSpeed="max">
        <route edges="-E4 top3D3 D3D2 D2right2 E51 E58 E56.635"/>
    </vehicle>
    <vehicle id="23" type="td_0" depart="4.00" departLane="best" departPos="random" departSpeed="max">
        <route edges="B2C2 C2C1 C1C0 C0B0 B0bottom1 E37 E40"/>
    </vehicle>
    <vehicle id="24" type="td_0" depart="4.00" departLane="best" departPos="random" departSpeed="max">
        <route edges="-E18 E19 E23 -E27"/>
    </vehicle>
    <vehicle id="25" type="td_0" depart="4.00" departLane="best" departPos="random" departSpeed="max">
        <route edges="-E25.370 -E26 -E21 -E20 left2A2 A2B2 B2C2 C2D2 D2D1 D1C1"/>
    </vehicle>
    <vehicle id="26" type="td_0" depart="4.00" departLane="best" departPos="random" departSpeed="max">
        <route edges="A1A0 A0B0 B0bottom1 E37 E40 E42 E61 E64 -E65"/>
    </vehicle>
    <vehicle id="27" type="td_0" depart="4.00" departLane="best" departPos="random" departSpeed="max">
        <route edges="E34 E38 -E37 bottom1B0 B0A0 A0left0 E29 -E30 -E26 -E21 -E20 left2A2"/>
    </vehicle>
    <vehicle id="28" type="td_0" depart="5.00" departLane="best" departPos="random" departSpeed="max">
        <route edges="D3C3 C3B3 B3B2 B2B1 B1B0 B0bottom1 E37"/>
    </vehicle>
    <vehicle id="29" type="td_0" depart="5.00" departLane="best" departPos="random" departSpeed="max">
        <route edges="-E51 right2D2 D2C2 C2C1 C1C0 C0D0"/>
    </vehicle>
    <vehicle id="30" type="td_0" depart="5.00" departLane="best" departPos="random" departSpeed="max">
        <route edges="C0D0 D0D1 D1C1 C1B1 B1B0 B0bottom1"/>
    </vehicle>
    <vehicle id="31" type="td_0" depart="5.00" departLane="best" departPos="random" departSpeed="max">
        <route edges="-E24 -E20 left2A2 A2B2 B2C2 C2C1 C1B1"/>
    </vehicle>
    <vehicle id="32" type="td_0" depart="6.00" departLane="best" departPos="random" departSpeed="max">
        <route edges="-E59.909 E65 -E64 -E61 -E42 -E39"/>
    </vehicle>
    <vehicle id="33" type="td_0" depart="6.00" departLane="best" departPos="random" departSpeed="max">
        <route edges="E37.245 E45 -E43 -E32 -E31 bottom0A0 A0A1 A1A2 A2left2 E20 E21"/>
    </vehicle>
    <vehicle id="34" type="td_0" depart="6.00" departLane="best" departPos="random" departSpeed="max">
        <route edges="left3A3 A3A2 A2A1 A1left1 E25 -E26 -E21 -E20 left2A2"/>
    </vehicle>
    <vehicle id="35" type="td_0" depart="6.00" departLane="best" departPos="random" departSpeed="max">
        <route edges="E21 E26 E25.370 E27 -E23 -E22 -E20"/>
    </vehicle>
    <vehicle id="36" type="td_0" depart="6.00" departLane="best" departPos="random" departSpeed="max">
        <route edges="C1C0 C0B0 B0B1 B1B2 B2B3 B3top1 -E7 -E10 E6 -E4 top3D3"/>
    </vehicle>
    <vehicle id="37" type="td_0" depart="6.00" departLane="best" departPos="random" departSpeed="max">
        <route edges="-E56.635 -E56 right1D1 D1C1 C1B1 B1A1 A1left1 E25"/>
    </vehicle>
    <vehicle id="38" type="td_0" depart="6.00" departLane="best" departPos="random" departSpeed="max">
        <route edges="-E57 -E56.635 -E58 -E51 right2D2 D2C2 C2C3 C3top2 E5"/>
    </vehicle>
    <vehicle id="39" type="td_0" depart="6.00" departLane="best" departPos="random" departSpeed="max">
        <route edges="E36 -E11 top0A3 A3B3 B3B2"/>
    </vehicle>
    <vehicle id="40" type="td_0" depart="7.00" departLane="best" departPos="random" departSpeed="max">
        <route edges="E65 -E64 -E61 -E42 -E40 -E37 bottom1B0 B0B1 B1B2 B2B3 B3C3"/>
    </vehicle>
    <vehicle id="41" type="td_0" depart="7.00" departLane="best" departPos="random" departSpeed="max">
        <route edges="D0bottom3 E41 -E42 -E40 -E37 bottom1B0 B0B1 B1B2 B2B3 B3C3"/>
    </vehicle>
    <vehicle id="42" type="td_0" depart="7.00" departLane="best" departPos="random" departSpeed="max">
        <route edges="E37 -E38 -E34 E33 -E35 -E30 -E26 -E21 E24 E36"/>
    </vehicle>
    <vehicle id="43" type="td_0" depart="7.00" departLane="best" departPos="random" departSpeed="max">
        <route edges="-E37.245 -E38 -E34 E33 -E35 -E29"/>
    </vehicle>
    <vehicle id="44" type="td_0" depart="7.00" departLane="best" departPos="random" departSpeed="max">
        <route edges="left1A1 A1B1 B1C1 C1D1 D1D2 D2D3 D3top3 E4 -E6"/>
    </vehicle>
    <vehicle id="45" type="td_0" depart="7.00" departLane="best" departPos="random" departSpeed="max">
        <route edges="-E41.262 -E42 -E40 -E37 bottom1B0 B0A0 A0A1 A1A2 A2A3 A3top0 E11 E11.252 E13"/>
    </vehicle>
    <vehicle id="46" type="td_0" depart="8.00" departLane="best" departPos="random" departSpeed="max">
        <route edges="-E37.245 -E37 bottom1B0 B0B1 B1C1 C1D1"/>
    </vehicle>
    <vehicle id="47" type="td_0" depart="8.00" departLane="best" departPos="random" departSpeed="max">
        <route edges="E61 E64 -E65 -E59 right0D0 D0C0 C0B0 B0B1 B1B2"/>
    </vehicle>
    <vehicle id="48" type="td_0" depart="8.00" departLane="best" departPos="random" departSpeed="max">
        <route edges="E11.252 E13 E17 -E16 -E15.181 -E15 left3A3 A3B3 B3B2 B2B1 B1A1"/>
    </vehicle>
    <vehicle id="49" type="td_0" depart="9.00" departLane="best" departPos="random" departSpeed="max">
        <route edges="-E30 -E26 -E21 -E20 left2A2 A2B2 B2C2 C2C1"/>
    </vehicle>
    <vehicle id="50" type="td_0" depart="9.00" departLane="best" departPos="random" departSpeed="max">
        <route edges="-E37 bottom1B0 B0B1 B1A1 A1A2 A2A3 A3top0 E11 E11.252 E13 E17 -E16"/>
    </vehicle>
    <vehicle id="51" type="td_0" depart="9.00" departLane="best" departPos="random" departSpeed="max">
        <route edges="-E62 -E61 -E42 -E40 -E38 -E34 E33 -E35 -E30 -E26 -E21 E22 E23 -E27"/>
    </vehicle>
    <vehicle id="52" type="td_0" depart="9.00" departLane="best" departPos="random" departSpeed="max">
        <route edges="A1A2 A2B2 B2B1 B1B0"/>
    </vehicle>
    <vehicle id="53" type="td_0" depart="9.00" departLane="best" departPos="random" departSpeed="max">
        <route edges="-E23 -E22 E24 -E15 left3A3 A3B3 B3C3 C3C2 C2B2"/>
    </vehicle>
    <vehicle id="54" type="td_0" depart="10.00" departLane="best" departPos="random" departSpeed="max">
        <route edges="D0D1 D1C1 C1C2 C2C3"/>
    </vehicle>
    <vehicle id="55" type="td_0" depart="10.00" departLane="best" departPos="random" departSpeed="max">
        <route edges="right1D1 D1C1 C1C0 C0B0"/>
    </vehicle>
    <vehicle id="56" type="td_0" depart="10.00" departLane="best" departPos="random" departSpeed="max">
        <route edges="A2A3 A3left3 E15 E15.181 E16"/>
    </vehicle>
    <vehicle id="57" type="td_0" depart="11.00" departLane="best" departPos="random" departSpeed="max">
        <route edges="-E29 left0A0 A0B0 B0C0 C0C1"/>
    </vehicle>
    <vehicle id="58" type="td_0" depart="11.00" departLane="best" departPos="random" departSpeed="max">
        <route edges="D1C1 C1C2 C2C3 C3D3 D3top3"/>
    </vehicle>
    <vehicle id="59" type="td_0" depart="11.00" departLane="best" departPos="random" departSpeed="max">
        <route edges="E20 E24 -E15 left3A3 A3B3 B3C3 C3D3 D3top3 E4"/>
    </vehicle>
    <vehicle id="60" type="td_0" depart="11.00" departLane="best" departPos="random" departSpeed="max">
        <route edges="-E61 -E41 bottom3D0 D0C0 C0C1 C1C2 C2C3 C3D3"/>
    </vehicle>
    <vehicle id="61" type="td_0" depart="11.00" departLane="best" departPos="random" departSpeed="max">
        <route edges="D1D0 D0C0 C0C1 C1C2 C2C3 C3top2 E5 E6 -E4"/>
    </vehicle>
    <vehicle id="62" type="td_0" depart="11.00" departLane="best" departPos="random" departSpeed="max">
        <route edges="-E19 -E15.181 E36 E48 E7.369 -E8"/>
    </vehicle>
    <vehicle id="63" type="td_0" depart="12.00" departLane="best" departPos="random" departSpeed="max">
        <route edges="E56.635 -E55 -E53 -E51 right2D2 D2C2 C2B2 B2A2 A2left2 E20 E24 -E15 left3A3"/>
    </vehicle>
    <vehicle id="64" type="td_0" depart="13.00" departLane="best" departPos="random" departSpeed="max">
        <route edges="-E13 -E11.252 -E36 E15.181"/>
    </vehicle>
    <vehicle id="65" type="td_0" depart="13.00" departLane="best" departPos="random" departSpeed="max">
        <route edges="B3top1 -E7 -E10 -E5 top2C3 C3C2 C2C1 C1D1"/>
    </vehicle>
    <vehicle id="66" type="td_0" depart="13.00" departLane="best" departPos="random" departSpeed="max">
        <route edges="-E56 right1D1 D1D0 D0bottom3 E41 E61 E63"/>
    </vehicle>
    <vehicle id="67" type="td_0" depart="13.00" departLane="best" departPos="random" departSpeed="max">
        <route edges="C2C1 C1D1 D1D0 D0bottom3 E41 -E42 -E40 -E37 bottom1B0"/>
    </vehicle>
    <vehicle id="68" type="td_0" depart="13.00" departLane="best" departPos="random" departSpeed="max">
        <route edges="A3left3 E15 -E24 -E20 left2A2 A2B2 B2C2"/>
    </vehicle>
    <vehicle id="69" type="td_0" depart="13.00" departLane="best" departPos="random" departSpeed="max">
        <route edges="E7.369 -E8 -E5 top2C3 C3C2 C2C1 C1D1 D1right1 E56"/>
    </vehicle>
    <vehicle id="70" type="td_0" depart="13.00" departLane="best" departPos="random" departSpeed="max">
        <route edges="B1C1 C1C2 C2C3 C3B3 B3A3 A3left3 E15 E36 -E11"/>
    </vehicle>
    <vehicle id="71" type="td_0" depart="14.00" departLane="best" departPos="random" departSpeed="max">
        <route edges="B1B0 B0C0 C0C1 C1C2 C2C3 C3D3 D3right3"/>
    </vehicle>
    <vehicle id="72" type="td_0" depart="14.00" departLane="best" departPos="random" departSpeed="max">
        <route edges="-E27 -E25.370 -E26 -E21 E24 E36 E11.252 E13 E17"/>
    </vehicle>
    <vehicle id="73" type="td_0" depart="14.00" departLane="best" departPos="random" departSpeed="max">
        <route edges="-E27 -E25.370 -E26 -E21 -E20"/>
    </vehicle>
    <vehicle id="74" type="td_0" depart="14.00" departLane="best" departPos="random" departSpeed="max">
        <route edges="-E55 -E53 E58 E56.635 E60 E65 -E64"/>
    </vehicle>
    <vehicle id="75" type="td_0" depart="14.00" departLane="best" departPos="random" departSpeed="max">
        <route edges="-E38 -E34 -E31 bottom0A0 A0A1 A1B1 B1C1 C1C0 C0B0"/>
    </vehicle>
    <vehicle id="76" type="td_0" depart="15.00" departLane="best" departPos="random" departSpeed="max">
        <route edges="B2B3 B3C3 C3C2 C2C1 C1C0 C0B0"/>
    </vehicle>
    <vehicle id="77" type="td_0" depart="15.00" departLane="best" departPos="random" departSpeed="max">
        <route edges="E23 -E27 -E25.370 -E25 left1A1 A1B1 B1C1 C1D1 D1right1"/>
    </vehicle>
    <vehicle id="78" type="td_0" depart="15.00" departLane="best" departPos="random" departSpeed="max">
        <route edges="B2C2 C2C1 C1B1 B1A1 A1A2 A2left2"/>
    </vehicle>
    <vehicle id="79" type="td_0" depart="15.00" departLane="best" departPos="random" departSpeed="max">
        <route edges="E60 E59.909"/>
    </vehicle>
    <vehicle id="80" type="td_0" depart="15.00" departLane="best" departPos="random" departSpeed="max">
        <route edges="bottom0A0 A0A1 A1B1 B1C1 C1C0"/>
    </vehicle>
    <vehicle id="81" type="td_0" depart="15.00" departLane="best" departPos="random" departSpeed="max">
        <route edges="-E36 -E24 E21 E26 E30 E35 -E33 E34 E38 -E37"/>
    </vehicle>
    <vehicle id="82" type="td_0" depart="16.00" departLane="best" departPos="random" departSpeed="max">
        <route edges="-E31 bottom0A0 A0A1 A1B1 B1C1 C1D1 D1right1 E56 E56.635 E60"/>
    </vehicle>
    <vehicle id="83" type="td_0" depart="16.00" departLane="best" departPos="random" departSpeed="max">
        <route edges="-E4 top3D3 D3C3 C3B3 B3B2 B2C2"/>
    </vehicle>
    <vehicle id="84" type="td_0" depart="16.00" departLane="best" departPos="random" departSpeed="max">
        <route edges="-E33 -E31 bottom0A0 A0A1 A1A2 A2A3 A3B3 B3C3 C3D3 D3top3"/>
    </vehicle>
    <vehicle id="85" type="td_0" depart="16.00" departLane="best" departPos="random" departSpeed="max">
        <route edges="E11 -E36 -E24 E22 -E19"/>
    </vehicle>
    <vehicle id="86" type="td_0" depart="16.00" departLane="best" departPos="random" departSpeed="max">
        <route edges="C0C1 C1D1 D1D0 D0bottom3 E41 E61 E64 -E65"/>
    </vehicle>
    <vehicle id="87" type="td_0" depart="17.00" departLane="best" departPos="random" departSpeed="max">
        <route edges="A2B2 B2B1 B1B0 B0bottom1 E37 E40"/>
    </vehicle>
    <vehicle id="88" type="td_0" depart="17.00" departLane="best" departPos="random" departSpeed="max">
        <route edges="-E28 E27 -E23 -E19 -E15.181"/>
    </vehicle>
    <vehicle id="89" type="td_0" depart="17.00" departLane="best" departPos="random" departSpeed="max">
        <route edges="-E32 -E31 bottom0A0 A0A1 A1B1 B1B2"/>
    </vehicle>
    <vehicle id="90" type="td_0" depart="17.00" departLane="best" departPos="random" departSpeed="max">
        <route edges="D2right2 E51 E58"/>
    </vehicle>
    <vehicle id="91" type="td_0" depart="17.00" departLane="best" departPos="random" departSpeed="max">
        <route edges="E16 -E17 -E13 -E11.252 -E11 top0A3 A3B3 B3C3 C3top2"/>
    </vehicle>
    <vehicle id="92" type="td_0" depart="17.00" departLane="best" departPos="random" departSpeed="max">
        <route edges="bottom3D0"/>
    </vehicle>
    <vehicle id="93" type="td_0" depart="17.00" departLane="best" departPos="random" departSpeed="max">
        <route edges="B1A1 A1A2 A2B2 B2C2 C2D2 D2right2 E51 E53"/>
    </vehicle>
    <vehicle id="94" type="td_0" depart="18.00" departLane="best" departPos="random" departSpeed="max">
        <route edges="E26 -E25 left1A1 A1B1 B1C1 C1D1 D1D2 D2D3 D3top3 E4"/>
    </vehicle>
    <vehicle id="95" type="td_0" depart="18.00" departLane="best" departPos="random" departSpeed="max">
        <route edges="B0bottom1 E37 -E38 -E34 -E31 bottom0A0 A0A1 A1A2 A2A3 A3top0 E11 E48 -E10 -E5"/>
    </vehicle>
    <vehicle id="96" type="td_0" depart="18.00" departLane="best" departPos="random" departSpeed="max">
        <route edges="A1A2 A2A3 A3top0 E11 E11.252"/>
    </vehicle>
    <vehicle id="97" type="td_0" depart="18.00" departLane="best" departPos="random" departSpeed="max">
        <route edges="-E5 top2C3 C3C2 C2C1 C1D1 D1right1 E56 -E58 -E51"/>
    </vehicle>
    <vehicle id="98" type="td_0" depart="18.00" departLane="best" departPos="random" departSpeed="max">
        <route edges="E40 E42 -E41 bottom3D0 D0C0 C0B0 B0bottom1 E37 -E38"/>
    </vehicle>
    <vehicle id="99" type="td_0" depart="19.00" departLane="best" departPos="random" departSpeed="max">
        <route edges="E34 E38 -E37 bottom1B0 B0B1 B1A1 A1A0"/>
    </vehicle>
    <vehicle id="100" type="td_0" depart="19.00" departLane="best" departPos="random" departSpeed="max">
        <route edges="-E24 E22 -E19 E16 -E17 -E13 E14"/>
    </vehicle>
    <vehicle id="101" type="td_0" depart="19.00" departLane="best" departPos="random" departSpeed="max">
        <route edges="-E61 -E41 bottom3D0 D0D1 D1right1 E56 E56.635 E57"/>
    </vehicle>
    <vehicle id="102" type="td_0" depart="19.00" departLane="best" departPos="random" departSpeed="max">
        <route edges="A1B1 B1B0 B0A0 A0left0 E29 -E30 E25.370 E27 -E23"/>
    </vehicle>
    <vehicle id="103" type="td_0" depart="19.00" departLane="best" departPos="random" departSpeed="max">
        <route edges="D2right2 E51 E58 -E56 right1D1 D1C1 C1C2 C2D2"/>
    </vehicle>
    <vehicle id="104" type="td_0" depart="19.00" departLane="best" departPos="random" departSpeed="max">
        <route edges="C0D0 D0D1 D1C1 C1B1 B1A1 A1A2 A2A3 A3B3"/>
    </vehicle>
    <vehicle id="105" type="td_0" depart="19.00" departLane="best" departPos="random" departSpeed="max">
        <route edges="-E14 E13 E17 -E16 E19 -E22 E21 E26 -E25 left1A1"/>
    </vehicle>
    <vehicle id="106" type="td_0" depart="20.00" departLane="best" departPos="random" departSpeed="max">
        <route edges="-E35 -E30 E25.370 E27 -E23"/>
    </vehicle>
    <vehicle id="107" type="td_0" depart="20.00" departLane="best" departPos="random" departSpeed="max">
        <route edges="-E12 E14"/>
    </vehicle>
    <vehicle id="108" type="td_0" depart="20.00" departLane="best" departPos="random" departSpeed="max">
        <route edges="-E30 -E26 -E21 -E20 left2A2 A2B2 B2C2 C2D2"/>
    </vehicle>
    <vehicle id="109" type="td_0" depart="21.00" departLane="best" departPos="random" departSpeed="max">
        <route edges="B3top1 -E7 -E48 -E11 top0A3 A3A2 A2A1 A1B1"/>
    </vehicle>
    <vehicle id="110" type="td_0" depart="21.00" departLane="best" departPos="random" departSpeed="max">
        <route edges="E6 -E4 top3D3 D3D2 D2C2 C2B2 B2A2 A2A1 A1A0 A0bottom0 E31 E33 -E35"/>
    </vehicle>
    <vehicle id="111" type="td_0" depart="21.00" departLane="best" departPos="random" departSpeed="max">
        <route edges="C3C2 C2C1 C1C0 C0B0 B0bottom1 E37 -E38 -E34 -E31"/>
    </vehicle>
    <vehicle id="112" type="td_0" depart="21.00" departLane="best" departPos="random" departSpeed="max">
        <route edges="-E18 -E15.181 -E15 left3A3 A3B3 B3C3 C3D3 D3D2 D2right2 E51 E58 E56.635 E60 -E59"/>
    </vehicle>
    <vehicle id="113" type="td_0" depart="21.00" departLane="best" departPos="random" departSpeed="max">
        <route edges="B0B1 B1C1 C1D1 D1D0 D0bottom3 E41 -E42"/>
    </vehicle>
    <vehicle id="114" type="td_0" depart="21.00" departLane="best" departPos="random" departSpeed="max">
        <route edges="-E43 -E32 -E31 bottom0A0 A0A1 A1B1 B1C1 C1D1 D1right1 E56 -E58 -E51"/>
    </vehicle>
    <vehicle id="115" type="td_0" depart="22.00" departLane="best" departPos="random" departSpeed="max">
        <route edges="-E55 -E53 -E51 right2D2 D2D3 D3C3 C3B3 B3A3 A3left3 E15 E15.181 E19"/>
    </vehicle>
    <vehicle id="116" type="td_0" depart="22.00" departLane="best" departPos="random" departSpeed="max">
        <route edges="left2A2 A2A3 A3left3 E15 E15.181"/>
    </vehicle>
    <vehicle id="117" type="td_0" depart="22.00" departLane="best" departPos="random" departSpeed="max">
        <route edges="C0D0 D0D1 D1C1 C1B1 B1A1 A1left1 E25 E30"/>
    </vehicle>
    <vehicle id="118" type="td_0" depart="22.00" departLane="best" departPos="random" departSpeed="max">
        <route edges="E47 E52 -E53 -E51 right2D2 D2C2 C2B2 B2A2 A2A1 A1A0 A0bottom0 E31 E32 E43 -E45 -E37.245"/>
    </vehicle>
    <vehicle id="119" type="td_0" depart="22.00" departLane="best" departPos="random" departSpeed="max">
        <route edges="-E11.252 -E11 top0A3 A3A2 A2A1 A1A0 A0bottom0 E31 E32 E43 E46"/>
    </vehicle>
    <vehicle id="120" type="td_0" depart="22.00" departLane="best" departPos="random" departSpeed="max">
        <route edges="D0D1 D1D2 D2D3 D3C3 C3B3 B3A3 A3left3 E15 E36"/>
    </vehicle>
    <vehicle id="121" type="td_0" depart="22.00" departLane="best" departPos="random" departSpeed="max">
        <route edges="E64 -E65 -E59 right0D0 D0C0 C0B0 B0bottom1 E37 E40 E42 -E41 bottom3D0"/>
    </vehicle>
    <vehicle id="122" type="td_0" depart="23.00" departLane="best" departPos="random" departSpeed="max">
        <route edges="B0B1 B1B2 B2A2 A2left2 E20 E22"/>
    </vehicle>
    <vehicle id="123" type="td_0" depart="23.00" departLane="best" departPos="random" departSpeed="max">
        <route edges="bottom2C0 C0C1 C1B1 B1B2 B2C2"/>
    </vehicle>
    <vehicle id="124" type="td_0" depart="23.00" departLane="best" departPos="random" departSpeed="max">
        <route edges="C2C1 C1C0 C0B0 B0A0 A0bottom0 E31 E32 E44"/>
    </vehicle>
    <vehicle id="125" type="td_0" depart="23.00" departLane="best" departPos="random" departSpeed="max">
        <route edges="D1C1 C1B1 B1A1 A1A2 A2A3 A3top0"/>
    </vehicle>
    <vehicle id="126" type="td_0" depart="23.00" departLane="best" departPos="random" departSpeed="max">
        <route edges="E10 -E48 -E36 -E24 E21 E26 E30 E35 -E33"/>
    </vehicle>
    <vehicle id="127" type="td_0" depart="23.00" departLane="best" departPos="random" departSpeed="max">
        <route edges="-E29 left0A0 A0A1 A1A2 A2B2 B2C2 C2D2 D2right2 E51 E53 E54"/>
    </vehicle>
    <vehicle id="128" type="td_0" depart="23.00" departLane="best" departPos="random" departSpeed="max">
        <route edges="B3top1 -E7 -E48"/>
    </vehicle>
    <vehicle id="129" type="td_0" depart="24.00" departLane="best" departPos="random" departSpeed="max">
        <route edges="E26 -E25 left1A1 A1B1 B1C1 C1C2 C2B2"/>
    </vehicle>
    <vehicle id="130" type="td_0" depart="24.00" departLane="best" departPos="random" departSpeed="max">
        <route edges="-E37 bottom1B0 B0C0"/>
    </vehicle>
    <vehicle id="131" type="td_0" depart="24.00" departLane="best" departPos="random" departSpeed="max">
        <route edges="D2D1 D1D0 D0C0 C0B0 B0bottom1 E37 E40 E42"/>
    </vehicle>
    <vehicle id="132" type="td_0" depart="24.00" departLane="best" departPos="random" departSpeed="max">
        <route edges="E48 E7 top1B3 B3A3 A3left3 E15 -E24 E21 E26 E30"/>
    </vehicle>
    <vehicle id="133" type="td_0" depart="24.00" departLane="best" departPos="random" departSpeed="max">
        <route edges="E24 -E15 left3A3 A3A2 A2A1 A1A0 A0B0"/>
    </vehicle>
    <vehicle id="134" type="td_0" depart="25.00" departLane="best" departPos="random" departSpeed="max">
        <route edges="B2B1 B1C1 C1C2 C2D2 D2right2 E51 E58 -E56"/>
    </vehicle>
    <vehicle id="135" type="td_0" depart="25.00" departLane="best" departPos="random" departSpeed="max">
        <route edges="E49 -E47 right3D3 D3C3 C3B3 B3A3 A3top0 E11 E11.252 E13"/>
    </vehicle>
    <vehicle id="136" type="td_0" depart="25.00" departLane="best" departPos="random" departSpeed="max">
        <route edges="-E33 -E31 bottom0A0 A0A1 A1A2 A2A3 A3left3 E15"/>
    </vehicle>
    <vehicle id="137" type="td_0" depart="25.00" departLane="best" departPos="random" departSpeed="max">
        <route edges="A1A0 A0B0 B0B1 B1B2 B2B3 B3top1 -E7 E7.369"/>
    </vehicle>
    <vehicle id="138" type="td_0" depart="25.00" departLane="best" departPos="random" departSpeed="max">
        <route edges="C1C2 C2B2"/>
    </vehicle>
    <vehicle id="139" type="td_0" depart="25.00" departLane="best" departPos="random" departSpeed="max">
        <route edges="C2B2 B2B3 B3top1 -E7 -E10 E6 -E4 top3D3"/>
    </vehicle>
    <vehicle id="140" type="td_0" depart="25.00" departLane="best" departPos="random" departSpeed="max">
        <route edges="-E42 -E40 -E37 bottom1B0 B0B1 B1C1 C1D1 D1D2"/>
    </vehicle>
    <vehicle id="141" type="td_0" depart="25.00" departLane="best" departPos="random" departSpeed="max">
        <route edges="-E23 -E22 -E20 left2A2 A2B2 B2C2 C2D2 D2D1"/>
    </vehicle>
    <vehicle id="142" type="td_0" depart="26.00" departLane="best" departPos="random" departSpeed="max">
        <route edges="-E55 -E53 -E51 right2D2 D2C2 C2B2 B2A2 A2left2 E20 E21 E26 E30 E35 -E33"/>
    </vehicle>
    <vehicle id="143" type="td_0" depart="26.00" departLane="best" departPos="random" departSpeed="max">
        <route edges="C0B0 B0A0 A0A1 A1A2 A2A3 A3left3 E15 -E24"/>
    </vehicle>
    <vehicle id="144" type="td_0" depart="26.00" departLane="best" departPos="random" departSpeed="max">
        <route edges="-E56.635 -E58 -E51 right2D2 D2C2 C2B2 B2A2 A2left2 E20 E22 E23 -E27 -E25.370"/>
    </vehicle>
    <vehicle id="145" type="td_0" depart="26.00" departLane="best" departPos="random" departSpeed="max">
        <route edges="-E6 E10 E7 top1B3 B3B2 B2B1 B1B0 B0bottom1 E37 E40 -E39"/>
    </vehicle>
    <vehicle id="146" type="td_0" depart="26.00" departLane="best" departPos="random" departSpeed="max">
        <route edges="A0bottom0 E31 E33 -E35 -E30 E25.370 E27 -E23 -E22"/>
    </vehicle>
    <vehicle id="147" type="td_0" depart="27.00" departLane="best" departPos="random" departSpeed="max">
        <route edges="-E4 top3D3 D3D2 D2C2 C2B2 B2B3 B3C3"/>
    </vehicle>
    <vehicle id="148" type="td_0" depart="27.00" departLane="best" departPos="random" departSpeed="max">
        <route edges="E38 -E37 bottom1B0 B0B1 B1C1 C1D1 D1right1 E56 -E58"/>
    </vehicle>