<?xml version="1.0" encoding="UTF-8"?>

<!-- generated on 2025-09-30 12:31:39 by Eclipse SUMO netedit Version 1.24.0
<neteditConfiguration xmlns:xsi="http://www.w3.org/2001/XMLSchema-instance" xsi:noNamespaceSchemaLocation="http://sumo.dlr.de/xsd/neteditConfiguration.xsd">

    <input>
        <sumocfg-file value="4x4loop.sumocfg"/>
        <sumo-net-file value="4x4loop.net.xml"/>
    </input>

    <output>
        <output-file value="4x4loop.net.xml"/>
    </output>

    <processing>
        <geometry.min-radius.fix.railways value="false"/>
        <geometry.avoid-overlap value="false"/>
        <geometry.max-grade.fix value="false"/>
        <offset.disable-normalization value="true"/>
        <lefthand value="0"/>
    </processing>

    <junctions>
        <no-turnarounds value="true"/>
        <junctions.corner-detail value="0"/>
        <junctions.limit-turn-speed value="-1.00"/>
        <rectangular-lane-cut value="0"/>
    </junctions>

    <pedestrian>
        <walkingareas value="0"/>
    </pedestrian>

    <netedit>
        <ignore.routeelements value="false"/>
    </netedit>

</neteditConfiguration>
-->

<net version="1.20" avoidOverlap="0" xmlns:xsi="http://www.w3.org/2001/XMLSchema-instance" xsi:noNamespaceSchemaLocation="http://sumo.dlr.de/xsd/net_file.xsd">

    <location netOffset="-1850.00,-2900.00" convBoundary="0.00,0.00,750.00,750.00" origBoundary="1850.00,2900.00,2600.00,3650.00" projParameter="!"/>

    <edge id=":0_0" function="internal">
        <lane id=":0_0_0" index="0" speed="13.90" length="9.03" shape="154.80,589.60 155.15,592.05 156.20,593.80 157.95,594.85 160.40,595.20"/>
    </edge>
    <edge id=":0_1" function="internal">
        <lane id=":0_1_0" index="0" speed="13.90" length="14.40" shape="154.80,589.60 154.80,604.00"/>
        <lane id=":0_1_1" index="1" speed="13.90" length="14.40" shape="151.60,589.60 151.60,604.00"/>
    </edge>
    <edge id=":0_3" function="internal">
        <lane id=":0_3_0" index="0" speed="13.90" length="14.40" shape="146.00,595.20 160.40,595.20"/>
        <lane id=":0_3_1" index="1" speed="13.90" length="14.40" shape="146.00,598.40 160.40,598.40"/>
    </edge>
    <edge id=":0_5" function="internal">
        <lane id=":0_5_0" index="0" speed="13.90" length="9.03" shape="146.00,598.40 148.45,598.75 150.20,599.80 151.25,601.55 151.60,604.00"/>
    </edge>
    <edge id=":1_0" function="internal">
        <lane id=":1_0_0" index="0" speed="13.90" length="14.40" shape="295.20,604.00 295.20,589.60"/>
        <lane id=":1_0_1" index="1" speed="13.90" length="14.40" shape="298.40,604.00 298.40,589.60"/>
    </edge>
    <edge id=":1_2" function="internal">
        <lane id=":1_2_0" index="0" speed="13.90" length="9.03" shape="298.40,604.00 298.75,601.55 299.80,599.80 301.55,598.75 304.00,598.40"/>
    </edge>
    <edge id=":1_3" function="internal">
        <lane id=":1_3_0" index="0" speed="13.90" length="9.03" shape="289.60,595.20 292.05,594.85 293.80,593.80 294.85,592.05 295.20,589.60"/>
    </edge>
    <edge id=":1_4" function="internal">
        <lane id=":1_4_0" index="0" speed="13.90" length="14.40" shape="289.60,595.20 304.00,595.20"/>
        <lane id=":1_4_1" index="1" speed="13.90" length="14.40" shape="289.60,598.40 304.00,598.40"/>
    </edge>
    <edge id=":10_0" function="internal">
        <lane id=":10_0_0" index="0" speed="13.90" length="9.03" shape="445.20,310.40 444.85,307.95 443.80,306.20 442.05,305.15 439.60,304.80"/>
    </edge>
    <edge id=":10_1" function="internal">
        <lane id=":10_1_0" index="0" speed="13.90" length="14.40" shape="445.20,310.40 445.20,296.00"/>
        <lane id=":10_1_1" index="1" speed="13.90" length="14.40" shape="448.40,310.40 448.40,296.00"/>
    </edge>
    <edge id=":10_3" function="internal">
        <lane id=":10_3_0" index="0" speed="13.90" length="14.40" shape="454.00,304.80 439.60,304.80"/>
        <lane id=":10_3_1" index="1" speed="13.90" length="14.40" shape="454.00,301.60 439.60,301.60"/>
    </edge>
    <edge id=":10_5" function="internal">
        <lane id=":10_5_0" index="0" speed="13.90" length="9.03" shape="454.00,301.60 451.55,301.25 449.80,300.20 448.75,298.45 448.40,296.00"/>
    </edge>
    <edge id=":11_0" function="internal">
        <lane id=":11_0_0" index="0" speed="13.90" length="9.03" shape="610.40,304.80 607.95,305.15 606.20,306.20 605.15,307.95 604.80,310.40"/>
    </edge>
    <edge id=":11_1" function="internal">
        <lane id=":11_1_0" index="0" speed="13.90" length="14.40" shape="610.40,304.80 596.00,304.80"/>
        <lane id=":11_1_1" index="1" speed="13.90" length="14.40" shape="610.40,301.60 596.00,301.60"/>
    </edge>
    <edge id=":11_3" function="internal">
        <lane id=":11_3_0" index="0" speed="13.90" length="14.40" shape="604.80,296.00 604.80,310.40"/>
        <lane id=":11_3_1" index="1" speed="13.90" length="14.40" shape="601.60,296.00 601.60,310.40"/>
    </edge>
    <edge id=":11_5" function="internal">
        <lane id=":11_5_0" index="0" speed="13.90" length="9.03" shape="601.60,296.00 601.25,298.45 600.20,300.20 598.45,301.25 596.00,301.60"/>
    </edge>
    <edge id=":12_0" function="internal">
        <lane id=":12_0_0" index="0" speed="13.90" length="9.03" shape="154.80,139.60 155.15,142.05 156.20,143.80 157.95,144.85 160.40,145.20"/>
    </edge>
    <edge id=":12_1" function="internal">
        <lane id=":12_1_0" index="0" speed="13.90" length="14.40" shape="154.80,139.60 154.80,154.00"/>
        <lane id=":12_1_1" index="1" speed="13.90" length="14.40" shape="151.60,139.60 151.60,154.00"/>
    </edge>
    <edge id=":12_3" function="internal">
        <lane id=":12_3_0" index="0" speed="13.90" length="14.40" shape="146.00,145.20 160.40,145.20"/>
        <lane id=":12_3_1" index="1" speed="13.90" length="14.40" shape="146.00,148.40 160.40,148.40"/>
    </edge>
    <edge id=":12_5" function="internal">
        <lane id=":12_5_0" index="0" speed="13.90" length="9.03" shape="146.00,148.40 148.45,148.75 150.20,149.80 151.25,151.55 151.60,154.00"/>
    </edge>
    <edge id=":13_0" function="internal">
        <lane id=":13_0_0" index="0" speed="13.90" length="14.40" shape="295.20,154.00 295.20,139.60"/>
        <lane id=":13_0_1" index="1" speed="13.90" length="14.40" shape="298.40,154.00 298.40,139.60"/>
    </edge>
    <edge id=":13_2" function="internal">
        <lane id=":13_2_0" index="0" speed="13.90" length="9.03" shape="298.40,154.00 298.75,151.55 299.80,149.80 301.55,148.75 304.00,148.40"/>
    </edge>
    <edge id=":13_3" function="internal">
        <lane id=":13_3_0" index="0" speed="13.90" length="9.03" shape="289.60,145.20 292.05,144.85 293.80,143.80 294.85,142.05 295.20,139.60"/>
    </edge>
    <edge id=":13_4" function="internal">
        <lane id=":13_4_0" index="0" speed="13.90" length="14.40" shape="289.60,145.20 304.00,145.20"/>
        <lane id=":13_4_1" index="1" speed="13.90" length="14.40" shape="289.60,148.40 304.00,148.40"/>
    </edge>
    <edge id=":14_0" function="internal">
        <lane id=":14_0_0" index="0" speed="13.90" length="14.40" shape="445.20,154.00 445.20,139.60"/>
        <lane id=":14_0_1" index="1" speed="13.90" length="14.40" shape="448.40,154.00 448.40,139.60"/>
    </edge>
    <edge id=":14_2" function="internal">
        <lane id=":14_2_0" index="0" speed="13.90" length="9.03" shape="448.40,154.00 448.75,151.55 449.80,149.80 451.55,148.75 454.00,148.40"/>
    </edge>
    <edge id=":14_3" function="internal">
        <lane id=":14_3_0" index="0" speed="13.90" length="9.03" shape="439.60,145.20 442.05,144.85 443.80,143.80 444.85,142.05 445.20,139.60"/>
    </edge>
    <edge id=":14_4" function="internal">
        <lane id=":14_4_0" index="0" speed="13.90" length="14.40" shape="439.60,145.20 454.00,145.20"/>
        <lane id=":14_4_1" index="1" speed="13.90" length="14.40" shape="439.60,148.40 454.00,148.40"/>
    </edge>
    <edge id=":15_0" function="internal">
        <lane id=":15_0_0" index="0" speed="13.90" length="9.03" shape="604.80,139.60 605.15,142.05 606.20,143.80 607.95,144.85 610.40,145.20"/>
    </edge>
    <edge id=":15_1" function="internal">
        <lane id=":15_1_0" index="0" speed="13.90" length="14.40" shape="604.80,139.60 604.80,154.00"/>
        <lane id=":15_1_1" index="1" speed="13.90" length="14.40" shape="601.60,139.60 601.60,154.00"/>
    </edge>
    <edge id=":15_3" function="internal">
        <lane id=":15_3_0" index="0" speed="13.90" length="14.40" shape="596.00,145.20 610.40,145.20"/>
        <lane id=":15_3_1" index="1" speed="13.90" length="14.40" shape="596.00,148.40 610.40,148.40"/>
    </edge>
    <edge id=":15_5" function="internal">
        <lane id=":15_5_0" index="0" speed="13.90" length="9.03" shape="596.00,148.40 598.45,148.75 600.20,149.80 601.25,151.55 601.60,154.00"/>
    </edge>
    <edge id=":2_0" function="internal">
        <lane id=":2_0_0" index="0" speed="13.90" length="14.40" shape="445.20,604.00 445.20,589.60"/>
        <lane id=":2_0_1" index="1" speed="13.90" length="14.40" shape="448.40,604.00 448.40,589.60"/>
    </edge>
    <edge id=":2_2" function="internal">
        <lane id=":2_2_0" index="0" speed="13.90" length="9.03" shape="448.40,604.00 448.75,601.55 449.80,599.80 451.55,598.75 454.00,598.40"/>
    </edge>
    <edge id=":2_3" function="internal">
        <lane id=":2_3_0" index="0" speed="13.90" length="9.03" shape="439.60,595.20 442.05,594.85 443.80,593.80 444.85,592.05 445.20,589.60"/>
    </edge>
    <edge id=":2_4" function="internal">
        <lane id=":2_4_0" index="0" speed="13.90" length="14.40" shape="439.60,595.20 454.00,595.20"/>
        <lane id=":2_4_1" index="1" speed="13.90" length="14.40" shape="439.60,598.40 454.00,598.40"/>
    </edge>
    <edge id=":3_0" function="internal">
        <lane id=":3_0_0" index="0" speed="13.90" length="9.03" shape="604.80,589.60 605.15,592.05 606.20,593.80 607.95,594.85 610.40,595.20"/>
    </edge>
    <edge id=":3_1" function="internal">
        <lane id=":3_1_0" index="0" speed="13.90" length="14.40" shape="604.80,589.60 604.80,604.00"/>
        <lane id=":3_1_1" index="1" speed="13.90" length="14.40" shape="601.60,589.60 601.60,604.00"/>
    </edge>
    <edge id=":3_3" function="internal">
        <lane id=":3_3_0" index="0" speed="13.90" length="14.40" shape="596.00,595.20 610.40,595.20"/>
        <lane id=":3_3_1" index="1" speed="13.90" length="14.40" shape="596.00,598.40 610.40,598.40"/>
    </edge>
    <edge id=":3_5" function="internal">
        <lane id=":3_5_0" index="0" speed="13.90" length="9.03" shape="596.00,598.40 598.45,598.75 600.20,599.80 601.25,601.55 601.60,604.00"/>
    </edge>
    <edge id=":4_0" function="internal">
        <lane id=":4_0_0" index="0" speed="13.90" length="9.03" shape="160.40,454.80 157.95,455.15 156.20,456.20 155.15,457.95 154.80,460.40"/>
    </edge>
    <edge id=":4_1" function="internal">
        <lane id=":4_1_0" index="0" speed="13.90" length="14.40" shape="160.40,454.80 146.00,454.80"/>
        <lane id=":4_1_1" index="1" speed="13.90" length="14.40" shape="160.40,451.60 146.00,451.60"/>
    </edge>
    <edge id=":4_3" function="internal">
        <lane id=":4_3_0" index="0" speed="13.90" length="14.40" shape="154.80,446.00 154.80,460.40"/>
        <lane id=":4_3_1" index="1" speed="13.90" length="14.40" shape="151.60,446.00 151.60,460.40"/>
    </edge>
    <edge id=":4_5" function="internal">
        <lane id=":4_5_0" index="0" speed="13.90" length="9.03" shape="151.60,446.00 151.25,448.45 150.20,450.20 148.45,451.25 146.00,451.60"/>
    </edge>
    <edge id=":5_0" function="internal">
        <lane id=":5_0_0" index="0" speed="13.90" length="9.03" shape="295.20,460.40 294.85,457.95 293.80,456.20 292.05,455.15 289.60,454.80"/>
    </edge>
    <edge id=":5_1" function="internal">
        <lane id=":5_1_0" index="0" speed="13.90" length="14.40" shape="295.20,460.40 295.20,446.00"/>
        <lane id=":5_1_1" index="1" speed="13.90" length="14.40" shape="298.40,460.40 298.40,446.00"/>
    </edge>
    <edge id=":5_3" function="internal">
        <lane id=":5_3_0" index="0" speed="13.90" length="14.40" shape="304.00,454.80 289.60,454.80"/>
        <lane id=":5_3_1" index="1" speed="13.90" length="14.40" shape="304.00,451.60 289.60,451.60"/>
    </edge>
    <edge id=":5_5" function="internal">
        <lane id=":5_5_0" index="0" speed="13.90" length="9.03" shape="304.00,451.60 301.55,451.25 299.80,450.20 298.75,448.45 298.40,446.00"/>
    </edge>
    <edge id=":6_0" function="internal">
        <lane id=":6_0_0" index="0" speed="13.90" length="9.03" shape="445.20,460.40 444.85,457.95 443.80,456.20 442.05,455.15 439.60,454.80"/>
    </edge>
    <edge id=":6_1" function="internal">
        <lane id=":6_1_0" index="0" speed="13.90" length="14.40" shape="445.20,460.40 445.20,446.00"/>
        <lane id=":6_1_1" index="1" speed="13.90" length="14.40" shape="448.40,460.40 448.40,446.00"/>
    </edge>
    <edge id=":6_3" function="internal">
        <lane id=":6_3_0" index="0" speed="13.90" length="14.40" shape="454.00,454.80 439.60,454.80"/>
        <lane id=":6_3_1" index="1" speed="13.90" length="14.40" shape="454.00,451.60 439.60,451.60"/>
    </edge>
    <edge id=":6_5" function="internal">
        <lane id=":6_5_0" index="0" speed="13.90" length="9.03" shape="454.00,451.60 451.55,451.25 449.80,450.20 448.75,448.45 448.40,446.00"/>
    </edge>
    <edge id=":7_0" function="internal">
        <lane id=":7_0_0" index="0" speed="13.90" length="9.03" shape="610.40,454.80 607.95,455.15 606.20,456.20 605.15,457.95 604.80,460.40"/>
    </edge>
    <edge id=":7_1" function="internal">
        <lane id=":7_1_0" index="0" speed="13.90" length="14.40" shape="610.40,454.80 596.00,454.80"/>
        <lane id=":7_1_1" index="1" speed="13.90" length="14.40" shape="610.40,451.60 596.00,451.60"/>
    </edge>
    <edge id=":7_3" function="internal">
        <lane id=":7_3_0" index="0" speed="13.90" length="14.40" shape="604.80,446.00 604.80,460.40"/>
        <lane id=":7_3_1" index="1" speed="13.90" length="14.40" shape="601.60,446.00 601.60,460.40"/>
    </edge>
    <edge id=":7_5" function="internal">
        <lane id=":7_5_0" index="0" speed="13.90" length="9.03" shape="601.60,446.00 601.25,448.45 600.20,450.20 598.45,451.25 596.00,451.60"/>
    </edge>
    <edge id=":8_0" function="internal">
        <lane id=":8_0_0" index="0" speed="13.90" length="9.03" shape="160.40,304.80 157.95,305.15 156.20,306.20 155.15,307.95 154.80,310.40"/>
    </edge>
    <edge id=":8_1" function="internal">
        <lane id=":8_1_0" index="0" speed="13.90" length="14.40" shape="160.40,304.80 146.00,304.80"/>
        <lane id=":8_1_1" index="1" speed="13.90" length="14.40" shape="160.40,301.60 146.00,301.60"/>
    </edge>
    <edge id=":8_3" function="internal">
        <lane id=":8_3_0" index="0" speed="13.90" length="14.40" shape="154.80,296.00 154.80,310.40"/>
        <lane id=":8_3_1" index="1" speed="13.90" length="14.40" shape="151.60,296.00 151.60,310.40"/>
    </edge>
    <edge id=":8_5" function="internal">
        <lane id=":8_5_0" index="0" speed="13.90" length="9.03" shape="151.60,296.00 151.25,298.45 150.20,300.20 148.45,301.25 146.00,301.60"/>
    </edge>
    <edge id=":9_0" function="internal">
        <lane id=":9_0_0" index="0" speed="13.90" length="9.03" shape="295.20,310.40 294.85,307.95 293.80,306.20 292.05,305.15 289.60,304.80"/>
    </edge>
    <edge id=":9_1" function="internal">
        <lane id=":9_1_0" index="0" speed="13.90" length="14.40" shape="295.20,310.40 295.20,296.00"/>
        <lane id=":9_1_1" index="1" speed="13.90" length="14.40" shape="298.40,310.40 298.40,296.00"/>
    </edge>
    <edge id=":9_3" function="internal">
        <lane id=":9_3_0" index="0" speed="13.90" length="14.40" shape="304.00,304.80 289.60,304.80"/>
        <lane id=":9_3_1" index="1" speed="13.90" length="14.40" shape="304.00,301.60 289.60,301.60"/>
    </edge>
    <edge id=":9_5" function="internal">
        <lane id=":9_5_0" index="0" speed="13.90" length="9.03" shape="304.00,301.60 301.55,301.25 299.80,300.20 298.75,298.45 298.40,296.00"/>
    </edge>

    <edge id="0to1" from="0" to="1" priority="-1">
        <lane id="0to1_0" index="0" speed="13.90" length="129.20" shape="160.40,595.20 289.60,595.20"/>
        <lane id="0to1_1" index="1" speed="13.90" length="129.20" shape="160.40,598.40 289.60,598.40"/>
    </edge>
    <edge id="0to16" from="0" to="16" priority="-1">
        <lane id="0to16_0" index="0" speed="13.90" length="146.00" shape="154.80,604.00 154.80,750.00"/>
        <lane id="0to16_1" index="1" speed="13.90" length="146.00" shape="151.60,604.00 151.60,750.00"/>
    </edge>
    <edge id="10to14" from="10" to="14" priority="-1">
        <lane id="10to14_0" index="0" speed="13.90" length="142.00" shape="445.20,296.00 445.20,154.00"/>
        <lane id="10to14_1" index="1" speed="13.90" length="142.00" shape="448.40,296.00 448.40,154.00"/>
    </edge>
    <edge id="10to9" from="10" to="9" priority="-1">
        <lane id="10to9_0" index="0" speed="13.90" length="135.60" shape="439.60,304.80 304.00,304.80"/>
        <lane id="10to9_1" index="1" speed="13.90" length="135.60" shape="439.60,301.60 304.00,301.60"/>
    </edge>
    <edge id="11to10" from="11" to="10" priority="-1">
        <lane id="11to10_0" index="0" speed="13.90" length="142.00" shape="596.00,304.80 454.00,304.80"/>
        <lane id="11to10_1" index="1" speed="13.90" length="142.00" shape="596.00,301.60 454.00,301.60"/>
    </edge>
    <edge id="11to7" from="11" to="7" priority="-1">
        <lane id="11to7_0" index="0" speed="13.90" length="135.60" shape="604.80,310.40 604.80,446.00"/>
        <lane id="11to7_1" index="1" speed="13.90" length="135.60" shape="601.60,310.40 601.60,446.00"/>
    </edge>
    <edge id="12to13" from="12" to="13" priority="-1">
        <lane id="12to13_0" index="0" speed="13.90" length="129.20" shape="160.40,145.20 289.60,145.20"/>
        <lane id="12to13_1" index="1" speed="13.90" length="129.20" shape="160.40,148.40 289.60,148.40"/>
    </edge>
    <edge id="12to8" from="12" to="8" priority="-1">
        <lane id="12to8_0" index="0" speed="13.90" length="142.00" shape="154.80,154.00 154.80,296.00"/>
        <lane id="12to8_1" index="1" speed="13.90" length="142.00" shape="151.60,154.00 151.60,296.00"/>
    </edge>
    <edge id="13to14" from="13" to="14" priority="-1">
        <lane id="13to14_0" index="0" speed="13.90" length="135.60" shape="304.00,145.20 439.60,145.20"/>
        <lane id="13to14_1" index="1" speed="13.90" length="135.60" shape="304.00,148.40 439.60,148.40"/>
    </edge>
    <edge id="13to25" from="13" to="25" priority="-1">
        <lane id="13to25_0" index="0" speed="13.90" length="139.60" shape="295.20,139.60 295.20,0.00"/>
        <lane id="13to25_1" index="1" speed="13.90" length="139.60" shape="298.40,139.60 298.40,0.00"/>
    </edge>
    <edge id="14to15" from="14" to="15" priority="-1">
        <lane id="14to15_0" index="0" speed="13.90" length="142.00" shape="454.00,145.20 596.00,145.20"/>
        <lane id="14to15_1" index="1" speed="13.90" length="142.00" shape="454.00,148.40 596.00,148.40"/>
    </edge>
    <edge id="14to26" from="14" to="26" priority="-1">
        <lane id="14to26_0" index="0" speed="13.90" length="139.60" shape="445.20,139.60 445.20,0.00"/>
        <lane id="14to26_1" index="1" speed="13.90" length="139.60" shape="448.40,139.60 448.40,0.00"/>
    </edge>
    <edge id="15to11" from="15" to="11" priority="-1">
        <lane id="15to11_0" index="0" speed="13.90" length="142.00" shape="604.80,154.00 604.80,296.00"/>
        <lane id="15to11_1" index="1" speed="13.90" length="142.00" shape="601.60,154.00 601.60,296.00"/>
    </edge>
    <edge id="15to31" from="15" to="31" priority="-1">
        <lane id="15to31_0" index="0" speed="13.90" length="139.60" shape="610.40,145.20 750.00,145.20"/>
        <lane id="15to31_1" index="1" speed="13.90" length="139.60" shape="610.40,148.40 750.00,148.40"/>
    </edge>
    <edge id="17to1" from="17" to="1" priority="-1">
        <lane id="17to1_0" index="0" speed="13.90" length="146.00" shape="295.20,750.00 295.20,604.00"/>
        <lane id="17to1_1" index="1" speed="13.90" length="146.00" shape="298.40,750.00 298.40,604.00"/>
    </edge>
    <edge id="18to2" from="18" to="2" priority="-1">
        <lane id="18to2_0" index="0" speed="13.90" length="146.00" shape="445.20,750.00 445.20,604.00"/>
        <lane id="18to2_1" index="1" speed="13.90" length="146.00" shape="448.40,750.00 448.40,604.00"/>
    </edge>
    <edge id="1to2" from="1" to="2" priority="-1">
        <lane id="1to2_0" index="0" speed="13.90" length="135.60" shape="304.00,595.20 439.60,595.20"/>
        <lane id="1to2_1" index="1" speed="13.90" length="135.60" shape="304.00,598.40 439.60,598.40"/>
    </edge>
    <edge id="1to5" from="1" to="5" priority="-1">
        <lane id="1to5_0" index="0" speed="13.90" length="129.20" shape="295.20,589.60 295.20,460.40"/>
        <lane id="1to5_1" index="1" speed="13.90" length="129.20" shape="298.40,589.60 298.40,460.40"/>
    </edge>
    <edge id="20to0" from="20" to="0" priority="-1">
        <lane id="20to0_0" index="0" speed="13.90" length="146.00" shape="0.00,595.20 146.00,595.20"/>
        <lane id="20to0_1" index="1" speed="13.90" length="146.00" shape="0.00,598.40 146.00,598.40"/>
    </edge>
    <edge id="23to12" from="23" to="12" priority="-1">
        <lane id="23to12_0" index="0" speed="13.90" length="146.00" shape="0.00,145.20 146.00,145.20"/>
        <lane id="23to12_1" index="1" speed="13.90" length="146.00" shape="0.00,148.40 146.00,148.40"/>
    </edge>
    <edge id="24to12" from="24" to="12" priority="-1">
        <lane id="24to12_0" index="0" speed="13.90" length="139.60" shape="154.80,0.00 154.80,139.60"/>
        <lane id="24to12_1" index="1" speed="13.90" length="139.60" shape="151.60,0.00 151.60,139.60"/>
    </edge>
    <edge id="27to15" from="27" to="15" priority="-1">
        <lane id="27to15_0" index="0" speed="13.90" length="139.60" shape="604.80,0.00 604.80,139.60"/>
        <lane id="27to15_1" index="1" speed="13.90" length="139.60" shape="601.60,0.00 601.60,139.60"/>
    </edge>
    <edge id="29to7" from="29" to="7" priority="-1">
        <lane id="29to7_0" index="0" speed="13.90" length="139.60" shape="750.00,454.80 610.40,454.80"/>
        <lane id="29to7_1" index="1" speed="13.90" length="139.60" shape="750.00,451.60 610.40,451.60"/>
    </edge>
    <edge id="2to3" from="2" to="3" priority="-1">
        <lane id="2to3_0" index="0" speed="13.90" length="142.00" shape="454.00,595.20 596.00,595.20"/>
        <lane id="2to3_1" index="1" speed="13.90" length="142.00" shape="454.00,598.40 596.00,598.40"/>
    </edge>
    <edge id="2to6" from="2" to="6" priority="-1">
        <lane id="2to6_0" index="0" speed="13.90" length="129.20" shape="445.20,589.60 445.20,460.40"/>
        <lane id="2to6_1" index="1" speed="13.90" length="129.20" shape="448.40,589.60 448.40,460.40"/>
    </edge>
    <edge id="30to11" from="30" to="11" priority="-1">
        <lane id="30to11_0" index="0" speed="13.90" length="139.60" shape="750.00,304.80 610.40,304.80"/>
        <lane id="30to11_1" index="1" speed="13.90" length="139.60" shape="750.00,301.60 610.40,301.60"/>
    </edge>
    <edge id="3to19" from="3" to="19" priority="-1">
        <lane id="3to19_0" index="0" speed="13.90" length="146.00" shape="604.80,604.00 604.80,750.00"/>
        <lane id="3to19_1" index="1" speed="13.90" length="146.00" shape="601.60,604.00 601.60,750.00"/>
    </edge>
    <edge id="3to28" from="3" to="28" priority="-1">
        <lane id="3to28_0" index="0" speed="13.90" length="139.60" shape="610.40,595.20 750.00,595.20"/>
        <lane id="3to28_1" index="1" speed="13.90" length="139.60" shape="610.40,598.40 750.00,598.40"/>
    </edge>
    <edge id="4to0" from="4" to="0" priority="-1">
        <lane id="4to0_0" index="0" speed="13.90" length="129.20" shape="154.80,460.40 154.80,589.60"/>
        <lane id="4to0_1" index="1" speed="13.90" length="129.20" shape="151.60,460.40 151.60,589.60"/>
    </edge>
    <edge id="4to21" from="4" to="21" priority="-1">
        <lane id="4to21_0" index="0" speed="13.90" length="146.00" shape="146.00,454.80 0.00,454.80"/>
        <lane id="4to21_1" index="1" speed="13.90" length="146.00" shape="146.00,451.60 0.00,451.60"/>
    </edge>
    <edge id="5to4" from="5" to="4" priority="-1">
        <lane id="5to4_0" index="0" speed="13.90" length="129.20" shape="289.60,454.80 160.40,454.80"/>
        <lane id="5to4_1" index="1" speed="13.90" length="129.20" shape="289.60,451.60 160.40,451.60"/>
    </edge>
    <edge id="5to9" from="5" to="9" priority="-1">
        <lane id="5to9_0" index="0" speed="13.90" length="135.60" shape="295.20,446.00 295.20,310.40"/>
        <lane id="5to9_1" index="1" speed="13.90" length="135.60" shape="298.40,446.00 298.40,310.40"/>
    </edge>
    <edge id="6to10" from="6" to="10" priority="-1">
        <lane id="6to10_0" index="0" speed="13.90" length="135.60" shape="445.20,446.00 445.20,310.40"/>
        <lane id="6to10_1" index="1" speed="13.90" length="135.60" shape="448.40,446.00 448.40,310.40"/>
    </edge>
    <edge id="6to5" from="6" to="5" priority="-1">
        <lane id="6to5_0" index="0" speed="13.90" length="135.60" shape="439.60,454.80 304.00,454.80"/>
        <lane id="6to5_1" index="1" speed="13.90" length="135.60" shape="439.60,451.60 304.00,451.60"/>
    </edge>
    <edge id="7to3" from="7" to="3" priority="-1">
        <lane id="7to3_0" index="0" speed="13.90" length="129.20" shape="604.80,460.40 604.80,589.60"/>
        <lane id="7to3_1" index="1" speed="13.90" length="129.20" shape="601.60,460.40 601.60,589.60"/>
    </edge>
    <edge id="7to6" from="7" to="6" priority="-1">
        <lane id="7to6_0" index="0" speed="13.90" length="142.00" shape="596.00,454.80 454.00,454.80"/>
        <lane id="7to6_1" index="1" speed="13.90" length="142.00" shape="596.00,451.60 454.00,451.60"/>
    </edge>
    <edge id="8to22" from="8" to="22" priority="-1">
        <lane id="8to22_0" index="0" speed="13.90" length="146.00" shape="146.00,304.80 0.00,304.80"/>
        <lane id="8to22_1" index="1" speed="13.90" length="146.00" shape="146.00,301.60 0.00,301.60"/>
    </edge>
    <edge id="8to4" from="8" to="4" priority="-1">
        <lane id="8to4_0" index="0" speed="13.90" length="135.60" shape="154.80,310.40 154.80,446.00"/>
        <lane id="8to4_1" index="1" speed="13.90" length="135.60" shape="151.60,310.40 151.60,446.00"/>
    </edge>
    <edge id="9to13" from="9" to="13" priority="-1">
        <lane id="9to13_0" index="0" speed="13.90" length="142.00" shape="295.20,296.00 295.20,154.00"/>
        <lane id="9to13_1" index="1" speed="13.90" length="142.00" shape="298.40,296.00 298.40,154.00"/>
    </edge>
    <edge id="9to8" from="9" to="8" priority="-1">
        <lane id="9to8_0" index="0" speed="13.90" length="129.20" shape="289.60,304.80 160.40,304.80"/>
        <lane id="9to8_1" index="1" speed="13.90" length="129.20" shape="289.60,301.60 160.40,301.60"/>
    </edge>

    <tlLogic id="0" type="static" programID="0" offset="0">
        <phase duration="30" state="GGGrrr"/>
        <phase duration="1"  state="yyyrrr"/>
        <phase duration="30" state="rrrGGG"/>
        <phase duration="1"  state="rrryyy"/>
    </tlLogic>
    <tlLogic id="1" type="static" programID="0" offset="0">
        <phase duration="30" state="GGGrrr"/>
        <phase duration="1"  state="yyyrrr"/>
        <phase duration="30" state="rrrGGG"/>
        <phase duration="1"  state="rrryyy"/>
    </tlLogic>
    <tlLogic id="10" type="static" programID="0" offset="0">
        <phase duration="30" state="GGGrrr"/>
        <phase duration="1"  state="yyyrrr"/>
        <phase duration="30" state="rrrGGG"/>
        <phase duration="1"  state="rrryyy"/>
    </tlLogic>
    <tlLogic id="11" type="static" programID="0" offset="0">
        <phase duration="30" state="GGGrrr"/>
        <phase duration="1"  state="yyyrrr"/>
        <phase duration="30" state="rrrGGG"/>
        <phase duration="1"  state="rrryyy"/>
    </tlLogic>
    <tlLogic id="12" type="static" programID="0" offset="0">
        <phase duration="30" state="GGGrrr"/>
        <phase duration="1"  state="yyyrrr"/>
        <phase duration="30" state="rrrGGG"/>
        <phase duration="1"  state="rrryyy"/>
    </tlLogic>
    <tlLogic id="13" type="static" programID="0" offset="0">
        <phase duration="30" state="GGGrrr"/>
        <phase duration="1"  state="yyyrrr"/>
        <phase duration="30" state="rrrGGG"/>
        <phase duration="1"  state="rrryyy"/>
    </tlLogic>
    <tlLogic id="14" type="static" programID="0" offset="0">
        <phase duration="30" state="GGGrrr"/>
        <phase duration="1"  state="yyyrrr"/>
        <phase duration="30" state="rrrGGG"/>
        <phase duration="1"  state="rrryyy"/>
    </tlLogic>
    <tlLogic id="15" type="static" programID="0" offset="0">
        <phase duration="30" state="GGGrrr"/>
        <phase duration="1"  state="yyyrrr"/>
        <phase duration="30" state="rrrGGG"/>
        <phase duration="1"  state="rrryyy"/>
    </tlLogic>
    <tlLogic id="2" type="static" programID="0" offset="0">
        <phase duration="30" state="GGGrrr"/>
        <phase duration="1"  state="yyyrrr"/>
        <phase duration="30" state="rrrGGG"/>
        <phase duration="1"  state="rrryyy"/>
    </tlLogic>
    <tlLogic id="3" type="static" programID="0" offset="0">
        <phase duration="30" state="GGGrrr"/>
        <phase duration="1"  state="yyyrrr"/>
        <phase duration="30" state="rrrGGG"/>
        <phase duration="1"  state="rrryyy"/>
    </tlLogic>
    <tlLogic id="4" type="static" programID="0" offset="0">
        <phase duration="30" state="GGGrrr"/>
        <phase duration="1"  state="yyyrrr"/>
        <phase duration="30" state="rrrGGG"/>
        <phase duration="1"  state="rrryyy"/>
    </tlLogic>
    <tlLogic id="5" type="static" programID="0" offset="0">