<?xml version="1.0" encoding="UTF-8"?>

<!-- generated on 2025-09-30 12:41:01.021987 by randomTrips.py v1_24_0+0000-b72eb3fabc8
<configuration>
    <net-file value="4x4loop.net.xml"/>
    <output-trip-file value="4x4loop-demo.rou.xml"/>
    <trip-attributes value="type=&quot;td_0&quot; departLane=&quot;best&quot; departSpeed=&quot;max&quot; departPos=&quot;random&quot;"/>
    <lanes value="True"/>
    <seed value="123"/>
    <end value="5000.0"/>
    <insertion-rate value="3000.0"/>
    <random-depart value="True"/>
    <binomial value="10"/>
</configuration>
-->

<!-- generated on 2025-09-30 12:41:00 by Eclipse SUMO duarouter Version 1.24.0
<duarouterConfiguration xmlns:xsi="http://www.w3.org/2001/XMLSchema-instance" xsi:noNamespaceSchemaLocation="http://sumo.dlr.de/xsd/duarouterConfiguration.xsd">

    <input>
        <net-file value="4x4loop.net.xml"/>
        <route-files value="4x4loop-demo.rou.xml"/>
    </input>

    <output>
        <output-file value="routes.rou.xml"/>
        <alternatives-output value="NUL"/>
    </output>

    <time>
        <begin value="0.0"/>
        <end value="5000.0"/>
    </time>

    <report>
        <no-warnings value="true"/>
        <ignore-errors value="true"/>
        <no-step-log value="true"/>
    </report>

</duarouterConfiguration>
-->

<routes xmlns:xsi="http://www.w3.org/2001/XMLSchema-instance" xsi:noNamespaceSchemaLocation="http://sumo.dlr.de/xsd/routes_file.xsd">
    <vehicle id="0" type="td_0" depart="2.00" departLane="best" departPos="random" departSpeed="max">
        <route edges="10to9 9to13 13to14 14to15 15to31"/>
    </vehicle>
    <vehicle id="1" type="td_0" depart="4.00" departLane="best" departPos="random" departSpeed="max">
        <route edges="27to15 15to11 11to10 10to14 14to15"/>
    </vehicle>
    <vehicle id="2" type="td_0" depart="5.00" departLane="best" departPos="random" departSpeed="max">
        <route edges="1to5 5to4 4to0 0to1 1to2 2to6 6to10 10to14"/>
    </vehicle>
    <vehicle id="3" type="td_0" depart="7.00" departLane="best" departPos="random" departSpeed="max">
        <route edges="17to1 1to2"/>
    </vehicle>
    <vehicle id="4" type="td_0" depart="9.00" departLane="best" departPos="random" departSpeed="max">
        <route edges="8to4 4to0 0to1 1to2 2to3 3to19"/>
    </vehicle>
    <vehicle id="5" type="td_0" depart="9.00" departLane="best" departPos="random" departSpeed="max">
        <route edges="5to9 9to13 13to14 14to15 15to11 11to7"/>
    </vehicle>
    <vehicle id="6" type="td_0" depart="9.00" departLane="best" departPos="random" departSpeed="max">
        <route edges="20to0 0to1 1to2 2to3 3to19"/>
    </vehicle>
    <vehicle id="7" type="td_0" depart="10.00" departLane="best" departPos="random" departSpeed="max">
        <route edges="18to2 2to6 6to10 10to14"/>
    </vehicle>
    <vehicle id="8" type="td_0" depart="11.00" departLane="best" departPos="random" departSpeed="max">
        <route edges="27to15 15to11 11to10 10to14"/>
    </vehicle>
    <vehicle id="9" type="td_0" depart="13.00" departLane="best" departPos="random" departSpeed="max">
        <route edges="7to6 6to5 5to4 4to0 0to16"/>
    </vehicle>
    <vehicle id="10" type="td_0" depart="14.00" departLane="best" departPos="random" departSpeed="max">
        <route edges="11to7 7to6 6to5 5to4 4to21"/>
    </vehicle>
    <vehicle id="11" type="td_0" depart="14.00" departLane="best" departPos="random" departSpeed="max">
        <route edges="24to12 12to13 13to14 14to15 15to11 11to7 7to6"/>
    </vehicle>
    <vehicle id="12" type="td_0" depart="15.00" departLane="best" departPos="random" departSpeed="max">
        <route edges="1to5 5to4 4to0 0to1 1to2 2to3"/>
    </vehicle>
    <vehicle id="13" type="td_0" depart="18.00" departLane="best" departPos="random" departSpeed="max">
        <route edges="1to2 2to6 6to10 10to9"/>
    </vehicle>
    <vehicle id="14" type="td_0" depart="19.00" departLane="best" departPos="random" departSpeed="max">
        <route edges="30to11 11to7 7to6 6to5 5to9"/>
    </vehicle>
    <vehicle id="15" type="td_0" depart="22.00" departLane="best" departPos="random" departSpeed="max">
        <route edges="9to8 8to4 4to0 0to1 1to2 2to6 6to10 10to14 14to15 15to11 11to10"/>
    </vehicle>
    <vehicle id="16" type="td_0" depart="23.00" departLane="best" departPos="random" departSpeed="max">
        <route edges="14to15 15to11 11to7"/>
    </vehicle>
    <vehicle id="17" type="td_0" depart="23.00" departLane="best" departPos="random" departSpeed="max">
        <route edges="24to12 12to8 8to4 4to0 0to1 1to2 2to6 6to10"/>
    </vehicle>
    <vehicle id="18" type="td_0" depart="24.00" departLane="best" departPos="random" departSpeed="max">
        <route edges="9to13 13to14 14to15 15to31"/>
    </vehicle>
    <vehicle id="19" type="td_0" depart="25.00" departLane="best" departPos="random" departSpeed="max">
        <route edges="8to4 4to0 0to1 1to2 2to6 6to10 10to14"/>
    </vehicle>
    <vehicle id="20" type="td_0" depart="27.00" departLane="best" departPos="random" departSpeed="max">
        <route edges="2to6"/>
    </vehicle>
    <vehicle id="21" type="td_0" depart="29.00" departLane="best" departPos="random" departSpeed="max">
        <route edges="9to13 13to14 14to15 15to11 11to7 7to6 6to5 5to9"/>
    </vehicle>
    <vehicle id="22" type="td_0" depart="30.00" departLane="best" departPos="random" departSpeed="max">
        <route edges="18to2 2to6 6to10 10to14 14to15 15to11 11to10"/>
    </vehicle>
    <vehicle id="23" type="td_0" depart="33.00" departLane="best" departPos="random" departSpeed="max">
        <route edges="11to7 7to6 6to5 5to9"/>
    </vehicle>
    <vehicle id="24" type="td_0" depart="36.00" departLane="best" departPos="random" departSpeed="max">
        <route edges="24to12 12to13 13to25"/>
    </vehicle>
    <vehicle id="25" type="td_0" depart="36.00" departLane="best" departPos="random" departSpeed="max">
        <route edges="30to11 11to10 10to9 9to13"/>
    </vehicle>
    <vehicle id="26" type="td_0" depart="38.00" departLane="best" departPos="random" departSpeed="max">
        <route edges="6to10 10to14"/>
    </vehicle>
    <vehicle id="27" type="td_0" depart="38.00" departLane="best" departPos="random" departSpeed="max">
        <route edges="11to7 7to6 6to5 5to4 4to0 0to1 1to2"/>
    </vehicle>
    <vehicle id="28" type="td_0" depart="39.00" departLane="best" departPos="random" departSpeed="max">
        <route edges="11to7 7to6 6to5 5to4 4to0 0to1 1to2"/>
    </vehicle>
    <vehicle id="29" type="td_0" depart="40.00" departLane="best" departPos="random" departSpeed="max">
        <route edges="17to1 1to2 2to6 6to10 10to14 14to15 15to11"/>
    </vehicle>
    <vehicle id="30" type="td_0" depart="49.00" departLane="best" departPos="random" departSpeed="max">
        <route edges="10to9 9to8 8to4"/>
    </vehicle>
    <vehicle id="31" type="td_0" depart="50.00" departLane="best" departPos="random" departSpeed="max">
        <route edges="18to2 2to6 6to10"/>
    </vehicle>
    <vehicle id="32" type="td_0" depart="52.00" departLane="best" departPos="random" departSpeed="max">
        <route edges="5to4 4to0 0to1 1to2 2to3 3to28"/>
    </vehicle>
    <vehicle id="33" type="td_0" depart="59.00" departLane="best" departPos="random" departSpeed="max">
        <route edges="12to8 8to4 4to0 0to1 1to5 5to9 9to13 13to14 14to26"/>
    </vehicle>
    <vehicle id="34" type="td_0" depart="59.00" departLane="best" departPos="random" departSpeed="max">
        <route edges="5to4 4to0 0to1 1to2 2to6 6to10"/>
    </vehicle>
    <vehicle id="35" type="td_0" depart="63.00" departLane="best" departPos="random" departSpeed="max">
        <route edges="10to14 14to15 15to11 11to10 10to9 9to13 13to14"/>
    </vehicle>
    <vehicle id="36" type="td_0" depart="66.00" departLane="best" departPos="random" departSpeed="max">
        <route edges="12to8 8to4"/>
    </vehicle>
    <vehicle id="37" type="td_0" depart="67.00" departLane="best" departPos="random" departSpeed="max">
        <route edges="0to1 1to2 2to6 6to5"/>
    </vehicle>
    <vehicle id="38" type="td_0" depart="69.00" departLane="best" departPos="random" departSpeed="max">
        <route edges="11to7 7to6 6to10 10to9 9to13 13to25"/>
    </vehicle>
    <vehicle id="39" type="td_0" depart="70.00" departLane="best" departPos="random" departSpeed="max">
        <route edges="27to15 15to11 11to10 10to9 9to13 13to25"/>
    </vehicle>
    <vehicle id="40" type="td_0" depart="70.00" departLane="best" departPos="random" departSpeed="max">
        <route edges="30to11 11to10"/>
    </vehicle>
    <vehicle id="41" type="td_0" depart="72.00" departLane="best" departPos="random" departSpeed="max">
        <route edges="11to7 7to6 6to5"/>
    </vehicle>
    <vehicle id="42" type="td_0" depart="73.00" departLane="best" departPos="random" departSpeed="max">
        <route edges="29to7 7to6 6to10 10to9 9to8"/>
    </vehicle>
    <vehicle id="43" type="td_0" depart="73.00" departLane="best" departPos="random" departSpeed="max">
        <route edges="11to7 7to6 6to10 10to14 14to26"/>
    </vehicle>
    <vehicle id="44" type="td_0" depart="75.00" departLane="best" departPos="random" departSpeed="max">
        <route edges="10to14 14to15 15to11 11to10 10to9 9to8"/>
    </vehicle>
    <vehicle id="45" type="td_0" depart="76.00" departLane="best" departPos="random" departSpeed="max">
        <route edges="11to7 7to6 6to5 5to4 4to0 0to1 1to2"/>
    </vehicle>
    <vehicle id="46" type="td_0" depart="78.00" departLane="best" departPos="random" departSpeed="max">
        <route edges="12to8 8to4 4to0 0to16"/>
    </vehicle>
    <vehicle id="47" type="td_0" depart="79.00" departLane="best" departPos="random" departSpeed="max">
        <route edges="23to12 12to13 13to14 14to15 15to31"/>
    </vehicle>
    <vehicle id="48" type="td_0" depart="80.00" departLane="best" departPos="random" departSpeed="max">
        <route edges="12to8 8to4 4to0 0to1 1to5 5to9 9to13 13to14 14to26"/>
    </vehicle>
    <vehicle id="49" type="td_0" depart="80.00" departLane="best" departPos="random" departSpeed="max">
        <route edges="10to14 14to15 15to11 11to10 10to9 9to8 8to4"/>
    </vehicle>
    <vehicle id="50" type="td_0" depart="81.00" departLane="best" departPos="random" departSpeed="max">
        <route edges="12to8 8to4 4to0 0to1 1to5 5to9 9to13 13to25"/>
    </vehicle>
    <vehicle id="51" type="td_0" depart="85.00" departLane="best" departPos="random" departSpeed="max">
        <route edges="1to2"/>
    </vehicle>
    <vehicle id="52" type="td_0" depart="86.00" departLane="best" departPos="random" departSpeed="max">
        <route edges="4to0 0to1 1to2 2to6 6to5"/>
    </vehicle>
    <vehicle id="53" type="td_0" depart="87.00" departLane="best" departPos="random" departSpeed="max">
        <route edges="1to2 2to6 6to10 10to14"/>
    </vehicle>
    <vehicle id="54" type="td_0" depart="88.00" departLane="best" departPos="random" departSpeed="max">
        <route edges="12to13 13to14 14to15"/>
    </vehicle>
    <vehicle id="55" type="td_0" depart="89.00" departLane="best" departPos="random" departSpeed="max">
        <route edges="13to14 14to26"/>
    </vehicle>
    <vehicle id="56" type="td_0" depart="93.00" departLane="best" departPos="random" departSpeed="max">
        <route edges="30to11 11to7 7to6 6to5 5to4 4to0"/>
    </vehicle>
    <vehicle id="57" type="td_0" depart="93.00" departLane="best" departPos="random" departSpeed="max">
        <route edges="5to4 4to0"/>
    </vehicle>
    <vehicle id="58" type="td_0" depart="94.00" departLane="best" departPos="random" departSpeed="max">
        <route edges="14to15 15to11 11to10 10to9 9to8 8to4 4to0 0to1 1to2 2to6"/>
    </vehicle>
    <vehicle id="59" type="td_0" depart="94.00" departLane="best" departPos="random" departSpeed="max">
        <route edges="4to0 0to1 1to2 2to6 6to10 10to14"/>
    </vehicle>
    <vehicle id="60" type="td_0" depart="95.00" departLane="best" departPos="random" departSpeed="max">
        <route edges="20to0 0to1 1to2 2to3"/>
    </vehicle>
    <vehicle id="61" type="td_0" depart="97.00" departLane="best" departPos="random" departSpeed="max">
        <route edges="4to0 0to1 1to5 5to9 9to13 13to14 14to26"/>
    </vehicle>
    <vehicle id="62" type="td_0" depart="99.00" departLane="best" departPos="random" departSpeed="max">
        <route edges="8to4 4to0 0to1 1to5 5to9 9to8"/>
    </vehicle>
    <vehicle id="63" type="td_0" depart="100.00" departLane="best" departPos="random" departSpeed="max">
        <route edges="0to1 1to2 2to6 6to10 10to14 14to15 15to11 11to10"/>
    </vehicle>
    <vehicle id="64" type="td_0" depart="101.00" departLane="best" departPos="random" departSpeed="max">
        <route edges="13to14 14to15 15to11 11to10 10to9 9to8 8to4 4to0 0to1 1to2"/>
    </vehicle>
    <vehicle id="65" type="td_0" depart="103.00" departLane="best" departPos="random" departSpeed="max">
        <route edges="9to13 13to14 14to15 15to11 11to10 10to14"/>
    </vehicle>
    <vehicle id="66" type="td_0" depart="104.00" departLane="best" departPos="random" departSpeed="max">
        <route edges="30to11 11to10 10to9 9to8 8to22"/>
    </vehicle>
    <vehicle id="67" type="td_0" depart="104.00" departLane="best" departPos="random" departSpeed="max">
        <route edges="5to9 9to13 13to14 14to26"/>
    </vehicle>
    <vehicle id="68" type="td_0" depart="104.00" departLane="best" departPos="random" departSpeed="max">
        <route edges="11to7 7to6 6to5 5to4 4to0"/>
    </vehicle>
    <vehicle id="69" type="td_0" depart="105.00" departLane="best" departPos="random" departSpeed="max">
        <route edges="9to8 8to4 4to0 0to1 1to2 2to3 3to19"/>
    </vehicle>
    <vehicle id="70" type="td_0" depart="105.00" departLane="best" departPos="random" departSpeed="max">
        <route edges="5to9 9to8 8to4 4to0"/>
    </vehicle>
    <vehicle id="71" type="td_0" depart="106.00" departLane="best" departPos="random" departSpeed="max">
        <route edges="0to1 1to5 5to9 9to8 8to4"/>
    </vehicle>
    <vehicle id="72" type="td_0" depart="106.00" departLane="best" departPos="random" departSpeed="max">
        <route edges="10to9 9to8 8to4 4to0 0to1 1to5 5to4"/>
    </vehicle>
    <vehicle id="73" type="td_0" depart="108.00" departLane="best" departPos="random" departSpeed="max">
        <route edges="10to9 9to8 8to4 4to0 0to1 1to5 5to9"/>
    </vehicle>
    <vehicle id="74" type="td_0" depart="108.00" departLane="best" departPos="random" departSpeed="max">
        <route edges="6to10 10to9 9to8 8to4 4to0 0to16"/>
    </vehicle>
    <vehicle id="75" type="td_0" depart="108.00" departLane="best" departPos="random" departSpeed="max">
        <route edges="27to15 15to11 11to10 10to9 9to8 8to4 4to21"/>
    </vehicle>
    <vehicle id="76" type="td_0" depart="109.00" departLane="best" departPos="random" departSpeed="max">
        <route edges="9to13 13to14 14to15 15to11 11to10 10to9 9to8 8to4 4to0 0to1 1to2"/>
    </vehicle>
    <vehicle id="77" type="td_0" depart="109.00" departLane="best" departPos="random" departSpeed="max">
        <route edges="24to12 12to13 13to14 14to26"/>
    </vehicle>
    <vehicle id="78" type="td_0" depart="110.00" departLane="best" departPos="random" departSpeed="max">
        <route edges="12to8 8to4 4to21"/>
    </vehicle>
    <vehicle id="79" type="td_0" depart="111.00" departLane="best" departPos="random" departSpeed="max">
        <route edges="24to12 12to8 8to4 4to0 0to1"/>
    </vehicle>
    <vehicle id="80" type="td_0" depart="114.00" departLane="best" departPos="random" departSpeed="max">
        <route edges="7to6 6to10 10to9 9to8"/>
    </vehicle>
    <vehicle id="81" type="td_0" depart="115.00" departLane="best" departPos="random" departSpeed="max">
        <route edges="10to9 9to8 8to4 4to0 0to1 1to2"/>
    </vehicle>
    <vehicle id="82" type="td_0" depart="121.00" departLane="best" departPos="random" departSpeed="max">
        <route edges="4to0 0to1 1to5 5to9 9to8"/>
    </vehicle>
    <vehicle id="83" type="td_0" depart="121.00" departLane="best" departPos="random" departSpeed="max">
        <route edges="30to11 11to10 10to14 14to15 15to31"/>
    </vehicle>
    <vehicle id="84" type="td_0" depart="126.00" departLane="best" departPos="random" departSpeed="max">
        <route edges="10to9 9to8 8to4 4to0 0to16"/>
    </vehicle>
    <vehicle id="85" type="td_0" depart="127.00" departLane="best" departPos="random" departSpeed="max">
        <route edges="9to13 13to14 14to15 15to11 11to10 10to9 9to8"/>
    </vehicle>
    <vehicle id="86" type="td_0" depart="128.00" departLane="best" departPos="random" departSpeed="max">
        <route edges="17to1 1to2 2to3"/>
    </vehicle>
    <vehicle id="87" type="td_0" depart="130.00" departLane="best" departPos="random" departSpeed="max">
        <route edges="23to12 12to8 8to22"/>
    </vehicle>
    <vehicle id="88" type="td_0" depart="133.00" departLane="best" departPos="random" departSpeed="max">
        <route edges="6to10 10to14 14to15 15to11 11to7 7to6"/>
    </vehicle>
    <vehicle id="89" type="td_0" depart="133.00" departLane="best" departPos="random" departSpeed="max">
        <route edges="9to13 13to14 14to15 15to11 11to10 10to9 9to8"/>
    </vehicle>
    <vehicle id="90" type="td_0" depart="133.00" departLane="best" departPos="random" departSpeed="max">
        <route edges="5to4 4to0 0to1 1to5 5to9 9to8 8to22"/>
    </vehicle>
    <vehicle id="91" type="td_0" depart="134.00" departLane="best" departPos="random" departSpeed="max">
        <route edges="2to6"/>
    </vehicle>
    <vehicle id="92" type="td_0" depart="134.00" departLane="best" departPos="random" departSpeed="max">
        <route edges="5to4 4to0 0to1 1to2 2to6 6to10 10to14"/>
    </vehicle>
    <vehicle id="93" type="td_0" depart="134.00" departLane="best" departPos="random" departSpeed="max">
        <route edges="13to14 14to15 15to11 11to10 10to9 9to8 8to4 4to0"/>
    </vehicle>
    <vehicle id="94" type="td_0" depart="134.00" departLane="best" departPos="random" departSpeed="max">
        <route edges="1to2 2to6 6to10 10to14 14to15 15to11 11to7 7to3"/>
    </vehicle>
    <vehicle id="95" type="td_0" depart="135.00" departLane="best" departPos="random" departSpeed="max">
        <route edges="15to11 11to10 10to9 9to8 8to4 4to0 0to16"/>
    </vehicle>
    <vehicle id="96" type="td_0" depart="136.00" departLane="best" departPos="random" departSpeed="max">
        <route edges="24to12 12to8 8to4 4to0 0to1 1to2 2to6"/>
    </vehicle>
    <vehicle id="97" type="td_0" depart="141.00" departLane="best" departPos="random" departSpeed="max">
        <route edges="17to1 1to5 5to4 4to0 0to1"/>
    </vehicle>
    <vehicle id="98" type="td_0" depart="142.00" departLane="best" departPos="random" departSpeed="max">
        <route edges="12to8 8to4 4to0 0to1 1to2 2to6"/>
    </vehicle>
    <vehicle id="99" type="td_0" depart="142.00" departLane="best" departPos="random" departSpeed="max">
        <route edges="20to0 0to1 1to5 5to9 9to13 13to25"/>
    </vehicle>
    <vehicle id="100" type="td_0" depart="144.00" departLane="best" departPos="random" departSpeed="max">
        <route edges="9to8 8to4 4to0 0to1 1to2 2to6 6to10 10to14 14to15"/>
    </vehicle>
    <vehicle id="101" type="td_0" depart="145.00" departLane="best" departPos="random" departSpeed="max">
        <route edges="11to10 10to14 14to15 15to11 11to7 7to3 3to28"/>
    </vehicle>
    <vehicle id="102" type="td_0" depart="148.00" departLane="best" departPos="random" departSpeed="max">
        <route edges="5to9 9to13 13to14 14to15 15to11 11to10"/>
    </vehicle>
    <vehicle id="103" type="td_0" depart="149.00" departLane="best" departPos="random" departSpeed="max">
        <route edges="6to10 10to14 14to15 15to31"/>
    </vehicle>
    <vehicle id="104" type="td_0" depart="149.00" departLane="best" departPos="random" departSpeed="max">
        <route edges="1to5 5to4 4to0 0to16"/>
    </vehicle>
    <vehicle id="105" type="td_0" depart="150.00" departLane="best" departPos="random" departSpeed="max">
        <route edges="2to6 6to10 10to14"/>
    </vehicle>
    <vehicle id="106" type="td_0" depart="151.00" departLane="best" departPos="random" departSpeed="max">
        <route edges="2to3"/>
    </vehicle>
    <vehicle id="107" type="td_0" depart="151.00" departLane="best" departPos="random" departSpeed="max">
        <route edges="0to1 1to5 5to9 9to8 8to22"/>
    </vehicle>
    <vehicle id="108" type="td_0" depart="153.00" departLane="best" departPos="random" departSpeed="max">
        <route edges="23to12 12to8 8to4 4to0 0to1 1to2 2to3 3to28"/>
    </vehicle>
    <vehicle id="109" type="td_0" depart="153.00" departLane="best" departPos="random" departSpeed="max">
        <route edges="12to13 13to14 14to15 15to11 11to7 7to6"/>
    </vehicle>
    <vehicle id="110" type="td_0" depart="153.00" departLane="best" departPos="random" departSpeed="max">
        <route edges="5to4 4to0 0to1 1to2"/>
    </vehicle>
    <vehicle id="111" type="td_0" depart="155.00" departLane="best" departPos="random" departSpeed="max">
        <route edges="9to8 8to4"/>
    </vehicle>
    <vehicle id="112" type="td_0" depart="158.00" departLane="best" departPos="random" departSpeed="max">
        <route edges="10to14 14to15 15to11 11to10 10to9 9to8 8to22"/>
    </vehicle>
    <vehicle id="113" type="td_0" depart="158.00" departLane="best" departPos="random" departSpeed="max">
        <route edges="18to2 2to6 6to5 5to4 4to0 0to1"/>
    </vehicle>
    <vehicle id="114" type="td_0" depart="158.00" departLane="best" departPos="random" departSpeed="max">
        <route edges="8to4 4to0 0to1 1to2 2to3 3to28"/>
    </vehicle>
    <vehicle id="115" type="td_0" depart="159.00" departLane="best" departPos="random" departSpeed="max">
        <route edges="1to2 2to6 6to5 5to4 4to0 0to1 1to5"/>
    </vehicle>
    <vehicle id="116" type="td_0" depart="160.00" departLane="best" departPos="random" departSpeed="max">
        <route edges="12to8 8to4 4to0 0to1 1to2 2to3 3to19"/>
    </vehicle>
    <vehicle id="117" type="td_0" depart="162.00" departLane="best" departPos="random" departSpeed="max">
        <route edges="12to8 8to4 4to0 0to1 1to2 2to6 6to10"/>
    </vehicle>
    <vehicle id="118" type="td_0" depart="163.00" departLane="best" departPos="random" departSpeed="max">
        <route edges="29to7 7to6 6to5 5to4 4to0 0to16"/>
    </vehicle>
    <vehicle id="119" type="td_0" depart="166.00" departLane="best" departPos="random" departSpeed="max">
        <route edges="4to0 0to1 1to5 5to9 9to13 13to25"/>
    </vehicle>
    <vehicle id="120" type="td_0" depart="166.00" departLane="best" departPos="random" departSpeed="max">
        <route edges="5to9 9to8 8to4 4to0 0to1 1to2 2to6 6to10"/>
    </vehicle>
    <vehicle id="121" type="td_0" depart="167.00" departLane="best" departPos="random" departSpeed="max">
        <route edges="7to6 6to5 5to4 4to0 0to16"/>
    </vehicle>
    <vehicle id="122" type="td_0" depart="167.00" departLane="best" departPos="random" departSpeed="max">
        <route edges="2to6 6to5 5to4 4to0 0to16"/>
    </vehicle>
    <vehicle id="123" type="td_0" depart="170.00" departLane="best" departPos="random" departSpeed="max">
        <route edges="27to15 15to11 11to7"/>
    </vehicle>
    <vehicle id="124" type="td_0" depart="172.00" departLane="best" departPos="random" departSpeed="max">
        <route edges="5to9 9to8 8to4"/>
    </vehicle>
    <vehicle id="125" type="td_0" depart="172.00" departLane="best" departPos="random" departSpeed="max">
        <route edges="6to10 10to9 9to8 8to4 4to0 0to1 1to2 2to6"/>
    </vehicle>
    <vehicle id="126" type="td_0" depart="173.00" departLane="best" departPos="random" departSpeed="max">
        <route edges="2to6 6to5 5to9 9to13"/>
    </vehicle>
    <vehicle id="127" type="td_0" depart="175.00" departLane="best" departPos="random" departSpeed="max">
        <route edges="20to0 0to1 1to5 5to4 4to21"/>
    </vehicle>
    <vehicle id="128" type="td_0" depart="176.00" departLane="best" departPos="random" departSpeed="max">
        <route edges="23to12 12to13 13to14"/>
    </vehicle>
    <vehicle id="129" type="td_0" depart="179.00" departLane="best" departPos="random" departSpeed="max">
        <route edges="10to9 9to13 13to14 14to15 15to11 11to10 10to14"/>
    </vehicle>
    <vehicle id="130" type="td_0" depart="180.00" departLane="best" departPos="random" departSpeed="max">
        <route edges="29to7 7to6 6to10 10to14 14to15"/>
    </vehicle>
    <vehicle id="131" type="td_0" depart="182.00" departLane="best" departPos="random" departSpeed="max">
        <route edges="30to11 11to10 10to14 14to15 15to11"/>
    </vehicle>
    <vehicle id="132" type="td_0" depart="182.00" departLane="best" departPos="random" departSpeed="max">
        <route edges="5to4 4to0 0to1 1to2 2to6 6to10 10to9"/>
    </vehicle>
    <vehicle id="133" type="td_0" depart="182.00" departLane="best" departPos="random" departSpeed="max">
        <route edges="2to6 6to10"/>
    </vehicle>
    <vehicle id="134" type="td_0" depart="184.00" departLane="best" departPos="random" departSpeed="max">
        <route edges="12to8 8to4 4to0 0to1 1to5"/>
    </vehicle>
    <vehicle id="135" type="td_0" depart="184.00" departLane="best" departPos="random" departSpeed="max">
        <route edges="7to6 6to10"/>
    </vehicle>
    <vehicle id="136" type="td_0" depart="184.00" departLane="best" departPos="random" departSpeed="max">
        <route edges="20to0 0to1 1to5 5to9"/>
    </vehicle>
    <vehicle id="137" type="td_0" depart="185.00" departLane="best" departPos="random" departSpeed="max">
        <route edges="20to0 0to1 1to2"/>
    </vehicle>
    <vehicle id="138" type="td_0" depart="187.00" departLane="best" departPos="random" departSpeed="max">
        <route edges="24to12 12to13 13to14 14to15 15to11 11to10"/>
    </vehicle>
    <vehicle id="139" type="td_0" depart="187.00" departLane="best" departPos="random" departSpeed="max">
        <route edges="20to0 0to1 1to5 5to9 9to13"/>
    </vehicle>
    <vehicle id="140" type="td_0" depart="188.00" departLane="best" departPos="random" departSpeed="max">
        <route edges="0to1 1to5 5to9 9to13 13to14 14to26"/>
    </vehicle>
    <vehicle id="141" type="td_0" depart="188.00" departLane="best" departPos="random" departSpeed="max">
        <route edges="17to1 1to5 5to9 9to13"/>
    </vehicle>
    <vehicle id="142" type="td_0" depart="189.00" departLane="best" departPos="random" departSpeed="max">
        <route edges="24to12 12to8 8to4 4to0 0to1 1to2 2to3"/>
    </vehicle>
    <vehicle id="143" type="td_0" depart="191.00" departLane="best" departPos="random" departSpeed="max">
        <route edges="4to0 0to1 1to5 5to9 9to13 13to25"/>
    </vehicle>
    <vehicle id="144" type="td_0" depart="192.00" departLane="best" departPos="random" departSpeed="max">
        <route edges="10to14 14to15 15to11 11to7 7to3 3to19"/>
    </vehicle>
    <vehicle id="145" type="td_0" depart="193.00" departLane="best" departPos="random" departSpeed="max">
        <route edges="12to8 8to4 4to0 0to1 1to5 5to9"/>
    </vehicle>
    <vehicle id="146" type="td_0" depart="193.00" departLane="best" departPos="random" departSpeed="max">
        <route edges="11to7 7to6 6to10 10to9"/>
    </vehicle>
    <vehicle id="147" type="td_0" depart="195.00" departLane="best" departPos="random" departSpeed="max">
        <route edges="9to13 13to14 14to15"/>
    </vehicle>
    <vehicle id="148" type="td_0" depart="195.00" departLane="best" departPos="random" departSpeed="max">
        <route edges="5to9 9to8 8to4 4to0 0to1 1to5"/>
    </vehicle>
    <vehicle id="149" type="td_0" depart="199.00" departLane="best" departPos="random" departSpeed="max">
        <route edges="6to5 5to9 9to13 13to25"/>
    </vehicle>
    <vehicle id="150" type="td_0" depart="199.00" departLane="best" departPos="random" departSpeed="max">
        <route edges="13to14 14to15 15to11 11to7 7to3"/>
    </vehicle>
    <vehicle id="151" type="td_0" depart="199.00" departLane="best" departPos="random" departSpeed="max">
        <route edges="2to6 6to5 5to4"/>
    </vehicle>
    <vehicle id="152" type="td_0" depart="202.00" departLane="best" departPos="random" departSpeed="max">
        <route edges="30to11 11to7 7to6 6to5 5to4 4to0 0to1"/>
    </vehicle>
    <vehicle id="153" type="td_0" depart="202.00" departLane="best" departPos="random" departSpeed="max">
        <route edges="11to7 7to6 6to10 10to9 9to8 8to4"/>
    </vehicle>
    <vehicle id="154" type="td_0" depart="203.00" departLane="best" departPos="random" departSpeed="max">
        <route edges="0to1 1to5 5to9"/>
    </vehicle>
    <vehicle id="155" type="td_0" depart="204.00" departLane="best" departPos="random" departSpeed="max">
        <route edges="7to6 6to5 5to4"/>
    </vehicle>
    <vehicle id="156" type="td_0" depart="205.00" departLane="best" departPos="random" departSpeed="max">
        <route edges="4to0 0to1 1to5 5to9 9to13"/>
    </vehicle>
    <vehicle id="157" type="td_0" depart="206.00" departLane="best" departPos="random" departSpeed="max">
        <route edges="11to7 7to6"/>
    </vehicle>
    <vehicle id="158" type="td_0" depart="206.00" departLane="best" departPos="random" departSpeed="max">
        <route edges="27to15 15to11 11to10 10to9 9to8 8to4 4to21"/>
    </vehicle>
    <vehicle id="159" type="td_0" depart="207.00" departLane="best" departPos="random" departSpeed="max">
        <route edges="4to0 0to1 1to2 2to3 3to19"/>
    </vehicle>
    <vehicle id="160" type="td_0" depart="207.00" departLane="best" departPos="random" departSpeed="max">
        <route edges="30to11 11to10 10to14 14to15 15to31"/>
    </vehicle>
    <vehicle id="161" type="td_0" depart="208.00" departLane="best" departPos="random" departSpeed="max">
        <route edges="12to13 13to14 14to15 15to11"/>
    </vehicle>
    <vehicle id="162" type="td_0" depart="209.00" departLane="best" departPos="random" departSpeed="max">
        <route edges="0to1 1to5 5to4 4to0 0to16"/>