<?xml version="1.0" encoding="UTF-8"?>

<!-- generated on 2025-12-03 15:55:03.645328 by Eclipse SUMO randomTrips.py UNKNOWN
<configuration>
    <net-file value="zurich.net.xml"/>
    <output-trip-file value="zurich-demo.rou.xml"/>
    <trip-attributes value="type=&quot;td_0&quot; departLane=&quot;best&quot; departSpeed=&quot;max&quot; departPos=&quot;random&quot;"/>
    <lanes value="True"/>
    <seed value="123"/>
    <end value="8000.0"/>
    <insertion-rate value="1.0 445.0 889.0 1334.0 2222.0 2964.0 3852.0 6519.0 8889.0 13334.0 8889.0 3556.0 1778.0 889.0 816.0 726.0 2222.0 5556.0 8889.0 5556.0 2222.0 1112.0 445.0 445.0 1112.0 1778.0 5334.0 11112.0 13334.0 11112.0 5334.0 4741.0 4297.0 4074.0 3852.0 3408.0 1852.0 1067.0 1067.0 431.0 1.0"/>
    <random-depart value="True"/>
    <binomial value="10"/>
</configuration>
-->

<routes xmlns:xsi="http://www.w3.org/2001/XMLSchema-instance" xsi:noNamespaceSchemaLocation="http://sumo.dlr.de/xsd/routes_file.xsd">
    <trip id="0" depart="211.12" from="45042937#0" to="1169825565" type="td_0" departLane="best" departSpeed="max" departPos="random"/>
    <trip id="1" depart="211.12" from="6275382#7" to="4803426#0" type="td_0" departLane="best" departSpeed="max" departPos="random"/>
    <trip id="2" depart="216.12" from="-1211302819#0" to="28128254#1" type="td_0" departLane="best" departSpeed="max" departPos="random"/>
    <trip id="3" depart="234.12" from="4730718#0" to="26645212#1" type="td_0" departLane="best" departSpeed="max" departPos="random"/>
    <trip id="4" depart="241.12" from="1139084789#1" to="422991319#1" type="td_0" departLane="best" departSpeed="max" departPos="random"/>
    <trip id="5" depart="241.12" from="1384314608#1" to="5881743#1" type="td_0" departLane="best" departSpeed="max" departPos="random"/>
    <trip id="6" depart="248.12" from="75470557#1" to="-82956882" type="td_0" departLane="best" departSpeed="max" departPos="random"/>
    <trip id="7" depart="254.12" from="-1139084789#4" to="4803511#1" type="td_0" departLane="best" departSpeed="max" departPos="random"/>
    <trip id="8" depart="290.12" from="596514086#3" to="28630236#00" type="td_0" departLane="best" departSpeed="max" departPos="random"/>
    <trip id="9" depart="295.12" from="5881742#2" to="4572091.56" type="td_0" departLane="best" departSpeed="max" departPos="random"/>
    <trip id="10" depart="300.12" from="1367076582#1" to="49600616#1" type="td_0" departLane="best" departSpeed="max" departPos="random"/>
    <trip id="11" depart="301.12" from="E5" to="4803511#4" type="td_0" departLane="best" departSpeed="max" departPos="random"/>
    <trip id="12" depart="307.12" from="1011249147#0" to="-82956882" type="td_0" departLane="best" departSpeed="max" departPos="random"/>
    <trip id="13" depart="311.12" from="-4558438#1" to="15675745#0" type="td_0" departLane="best" departSpeed="max" departPos="random"/>
    <trip id="14" depart="316.12" from="4592590#1" to="4803405#0" type="td_0" departLane="best" departSpeed="max" departPos="random"/>
    <trip id="15" depart="337.12" from="289146494#1" to="-313465298#1" type="td_0" departLane="best" departSpeed="max" departPos="random"/>
    <trip id="16" depart="341.12" from="1346189641#4" to="1303164756#1" type="td_0" departLane="best" departSpeed="max" departPos="random"/>
    <trip id="17" depart="363.12" from="536837425#2" to="41221165" type="td_0" departLane="best" departSpeed="max" departPos="random"/>
    <trip id="18" depart="386.12" from="147164232#0" to="-26154816#0" type="td_0" departLane="best" departSpeed="max" departPos="random"/>
    <trip id="19" depart="390.24" from="-1384314608#1" to="4803427#1" type="td_0" departLane="best" departSpeed="max" departPos="random"/>
    <trip id="20" depart="392.24" from="-81552989#4" to="860373106#0" type="td_0" departLane="best" departSpeed="max" departPos="random"/>
    <trip id="21" depart="404.24" from="5772446#1" to="4533224#1" type="td_0" departLane="best" departSpeed="max" departPos="random"/>
    <trip id="22" depart="405.24" from="4803456#1" to="-1139084789#4" type="td_0" departLane="best" departSpeed="max" departPos="random"/>
    <trip id="23" depart="410.24" from="-527458585#1" to="526016640#1" type="td_0" departLane="best" departSpeed="max" departPos="random"/>
    <trip id="24" depart="412.24" from="536841067#0" to="5881742#2" type="td_0" departLane="best" departSpeed="max" departPos="random"/>
    <trip id="25" depart="413.24" from="330403834" to="-13863761#3" type="td_0" departLane="best" departSpeed="max" departPos="random"/>
    <trip id="26" depart="414.24" from="-4558441#0" to="4803427#1" type="td_0" departLane="best" departSpeed="max" departPos="random"/>
    <trip id="27" depart="422.24" from="-26645783#1" to="27433890#0.6" type="td_0" departLane="best" departSpeed="max" departPos="random"/>
    <trip id="28" depart="422.24" from="536841066" to="683609958#1" type="td_0" departLane="best" departSpeed="max" departPos="random"/>
    <trip id="29" depart="424.24" from="-1169825565" to="547047277#4" type="td_0" departLane="best" departSpeed="max" departPos="random"/>
    <trip id="30" depart="426.24" from="1211302819#0.13" to="49600616#3" type="td_0" departLane="best" departSpeed="max" departPos="random"/>
    <trip id="31" depart="427.24" from="-1169825567.9" to="521669304#2" type="td_0" departLane="best" departSpeed="max" departPos="random"/>
    <trip id="32" depart="427.24" from="4533225#3" to="-842455631" type="td_0" departLane="best" departSpeed="max" departPos="random"/>
    <trip id="33" depart="431.24" from="6275380#0" to="-4558440#0" type="td_0" departLane="best" departSpeed="max" departPos="random"/>
    <trip id="34" depart="433.24" from="81552990#3" to="E1" type="td_0" departLane="best" departSpeed="max" departPos="random"/>
    <trip id="35" depart="434.24" from="4803456#1" to="1169825566#10" type="td_0" departLane="best" departSpeed="max" departPos="random"/>
    <trip id="36" depart="440.24" from="-596514086#3" to="-1169825568" type="td_0" departLane="best" departSpeed="max" departPos="random"/>
    <trip id="37" depart="441.24" from="39013715#1" to="-1169703852#1" type="td_0" departLane="best" departSpeed="max" departPos="random"/>
    <trip id="38" depart="442.24" from="5944810#2" to="1297166329#1" type="td_0" departLane="best" departSpeed="max" departPos="random"/>
    <trip id="39" depart="445.24" from="44906779#5" to="-1011249147#0" type="td_0" departLane="best" departSpeed="max" departPos="random"/>
    <trip id="40" depart="447.24" from="1169703853" to="1324070803" type="td_0" departLane="best" departSpeed="max" departPos="random"/>
    <trip id="41" depart="452.24" from="179097891#0" to="284686652#2" type="td_0" departLane="best" departSpeed="max" departPos="random"/>
    <trip id="42" depart="453.24" from="-861311402#5" to="1279201427#0" type="td_0" departLane="best" departSpeed="max" departPos="random"/>
    <trip id="43" depart="454.24" from="9935272#1" to="207098958#1" type="td_0" departLane="best" departSpeed="max" departPos="random"/>
    <trip id="44" depart="454.24" from="521669300#1" to="-371342811#1" type="td_0" departLane="best" departSpeed="max" departPos="random"/>
    <trip id="45" depart="455.24" from="45042939#1" to="4803408#0" type="td_0" departLane="best" departSpeed="max" departPos="random"/>
    <trip id="46" depart="470.24" from="-15217539#0" to="1117202247#1" type="td_0" departLane="best" departSpeed="max" departPos="random"/>
    <trip id="47" depart="470.24" from="83115254#1" to="-164974561#1" type="td_0" departLane="best" departSpeed="max" departPos="random"/>
    <trip id="48" depart="475.24" from="603349776" to="81552989#1" type="td_0" departLane="best" departSpeed="max" departPos="random"/>
    <trip id="49" depart="484.24" from="-26646987#1" to="-1169825567.9" type="td_0" departLane="best" departSpeed="max" departPos="random"/>
    <trip id="50" depart="485.24" from="791130340#1" to="-791130340#1" type="td_0" departLane="best" departSpeed="max" departPos="random"/>
    <trip id="51" depart="486.24" from="289146494#1" to="E3" type="td_0" departLane="best" departSpeed="max" departPos="random"/>
    <trip id="52" depart="487.24" from="-26646028#2" to="15675937#0" type="td_0" departLane="best" departSpeed="max" departPos="random"/>
    <trip id="53" depart="492.24" from="-4803425" to="4803405#0" type="td_0" departLane="best" departSpeed="max" departPos="random"/>
    <trip id="54" depart="496.24" from="422991319#1" to="-683609958#8" type="td_0" departLane="best" departSpeed="max" departPos="random"/>
    <trip id="55" depart="508.24" from="32928276" to="44906784#1" type="td_0" departLane="best" departSpeed="max" departPos="random"/>
    <trip id="56" depart="511.24" from="4558441#0" to="-527458585#1" type="td_0" departLane="best" departSpeed="max" departPos="random"/>
    <trip id="57" depart="513.24" from="83115253#0" to="-49600616#6" type="td_0" departLane="best" departSpeed="max" departPos="random"/>
    <trip id="58" depart="514.24" from="-192236405#2" to="298904469#2" type="td_0" departLane="best" departSpeed="max" departPos="random"/>
    <trip id="59" depart="514.24" from="-4743764#2" to="-44906779#2" type="td_0" departLane="best" departSpeed="max" departPos="random"/>
    <trip id="60" depart="515.24" from="4572091" to="13863761#3" type="td_0" departLane="best" departSpeed="max" departPos="random"/>
    <trip id="61" depart="527.24" from="1384314607#1" to="5944806#2" type="td_0" departLane="best" departSpeed="max" departPos="random"/>
    <trip id="62" depart="531.24" from="-29116100#4" to="313465295#4" type="td_0" departLane="best" departSpeed="max" departPos="random"/>
    <trip id="63" depart="534.24" from="284686648#0" to="208143935#1" type="td_0" departLane="best" departSpeed="max" departPos="random"/>
    <trip id="64" depart="537.24" from="596514114#1" to="182056040#1" type="td_0" departLane="best" departSpeed="max" departPos="random"/>
    <trip id="65" depart="539.24" from="-55455547#2" to="378128430#1" type="td_0" departLane="best" departSpeed="max" departPos="random"/>
    <trip id="66" depart="543.24" from="-1117202247#3" to="35162766#0" type="td_0" departLane="best" departSpeed="max" departPos="random"/>
    <trip id="67" depart="556.24" from="81552996#0" to="548529066#0" type="td_0" departLane="best" departSpeed="max" departPos="random"/>
    <trip id="68" depart="560.24" from="-5944790#3" to="192236405#1" type="td_0" departLane="best" departSpeed="max" departPos="random"/>
    <trip id="69" depart="561.24" from="-4803425" to="1169825562#0" type="td_0" departLane="best" departSpeed="max" departPos="random"/>
    <trip id="70" depart="561.24" from="-4533225#1" to="29116100#9" type="td_0" departLane="best" departSpeed="max" departPos="random"/>
    <trip id="71" depart="566.24" from="1367076582#1" to="526016643#1" type="td_0" departLane="best" departSpeed="max" departPos="random"/>
    <trip id="72" depart="574.24" from="29116101#3" to="-298904469#2" type="td_0" departLane="best" departSpeed="max" departPos="random"/>
    <trip id="73" depart="578.24" from="31240870#1" to="4440329.21" type="td_0" departLane="best" departSpeed="max" departPos="random"/>
    <trip id="74" depart="583.24" from="1211302819#0.13" to="-596514114#0" type="td_0" departLane="best" departSpeed="max" departPos="random"/>
    <trip id="75" depart="585.37" from="699663268#2" to="-683609958#1" type="td_0" departLane="best" departSpeed="max" departPos="random"/>
    <trip id="76" depart="588.37" from="-298904469#0" to="4803424#1" type="td_0" departLane="best" departSpeed="max" departPos="random"/>
    <trip id="77" depart="589.37" from="-313465295#4" to="-147390905#6" type="td_0" departLane="best" departSpeed="max" departPos="random"/>
    <trip id="78" depart="594.37" from="547047277#4" to="4743769#3" type="td_0" departLane="best" departSpeed="max" departPos="random"/>
    <trip id="79" depart="596.37" from="1230989714" to="298904469#2" type="td_0" departLane="best" departSpeed="max" departPos="random"/>
    <trip id="80" depart="597.37" from="4558440#7" to="-1117202247#3" type="td_0" departLane="best" departSpeed="max" departPos="random"/>
    <trip id="81" depart="599.37" from="1169825568" to="15734263#1" type="td_0" departLane="best" departSpeed="max" departPos="random"/>
    <trip id="82" depart="599.37" from="26646344#0" to="-1324070803" type="td_0" departLane="best" departSpeed="max" departPos="random"/>
    <trip id="83" depart="600.37" from="1169703852#1" to="1089407128#3" type="td_0" departLane="best" departSpeed="max" departPos="random"/>
    <trip id="84" depart="603.37" from="-26646784#1" to="5944805#1" type="td_0" departLane="best" departSpeed="max" departPos="random"/>
    <trip id="85" depart="604.37" from="967647590#0" to="15675729#0" type="td_0" departLane="best" departSpeed="max" departPos="random"/>
    <trip id="86" depart="608.37" from="-147161801" to="-43566484#3" type="td_0" departLane="best" departSpeed="max" departPos="random"/>
    <trip id="87" depart="609.37" from="147164233#0" to="-547047229#0" type="td_0" departLane="best" departSpeed="max" departPos="random"/>
    <trip id="88" depart="615.37" from="-374533048" to="521669309#0" type="td_0" departLane="best" departSpeed="max" departPos="random"/>
    <trip id="89" depart="617.37" from="-5944790#1" to="521669304#2" type="td_0" departLane="best" departSpeed="max" departPos="random"/>
    <trip id="90" depart="618.37" from="4743768#5" to="28802233#1" type="td_0" departLane="best" departSpeed="max" departPos="random"/>
    <trip id="91" depart="618.37" from="-44403291" to="-49872902" type="td_0" departLane="best" departSpeed="max" departPos="random"/>
    <trip id="92" depart="632.37" from="-1117202247#3" to="33693799#1" type="td_0" departLane="best" departSpeed="max" departPos="random"/>
    <trip id="93" depart="634.37" from="4558441#0" to="-43566484#7" type="td_0" departLane="best" departSpeed="max" departPos="random"/>
    <trip id="94" depart="636.37" from="1111971585#5" to="967647588#1" type="td_0" departLane="best" departSpeed="max" departPos="random"/>
    <trip id="95" depart="637.37" from="29116100#2" to="-1011249147#0" type="td_0" departLane="best" departSpeed="max" departPos="random"/>
    <trip id="96" depart="640.37" from="-44906779#2" to="-1324076749#0" type="td_0" departLane="best" departSpeed="max" departPos="random"/>
    <trip id="97" depart="646.37" from="26645917#9" to="967647587#1" type="td_0" departLane="best" departSpeed="max" departPos="random"/>
    <trip id="98" depart="646.37" from="-527458585#1" to="4572091.56" type="td_0" departLane="best" departSpeed="max" departPos="random"/>
    <trip id="99" depart="650.37" from="-1169825563#1" to="422991319#2" type="td_0" departLane="best" departSpeed="max" departPos="random"/>
    <trip id="100" depart="652.37" from="82956882.11" to="-27433746" type="td_0" departLane="best" departSpeed="max" departPos="random"/>
    <trip id="101" depart="653.37" from="817867132#0" to="4592590#1" type="td_0" departLane="best" departSpeed="max" departPos="random"/>
    <trip id="102" depart="653.37" from="-29116100#2" to="-4803405#0" type="td_0" departLane="best" departSpeed="max" departPos="random"/>
    <trip id="103" depart="656.37" from="526016640#1" to="-1111971585#5" type="td_0" departLane="best" departSpeed="max" departPos="random"/>
    <trip id="104" depart="660.37" from="44906781#1" to="26154816#0" type="td_0" departLane="best" departSpeed="max" departPos="random"/>
    <trip id="105" depart="664.37" from="596514086#3" to="11663984#1" type="td_0" departLane="best" departSpeed="max" departPos="random"/>
    <trip id="106" depart="664.37" from="-1089407128#3" to="860373106#1" type="td_0" departLane="best" departSpeed="max" departPos="random"/>
    <trip id="107" depart="666.37" from="4558439#0" to="15675729#0" type="td_0" departLane="best" departSpeed="max" departPos="random"/>
    <trip id="108" depart="669.37" from="26154816#0" to="28630236#00" type="td_0" departLane="best" departSpeed="max" departPos="random"/>
    <trip id="109" depart="669.37" from="1367076582#1" to="1111971585#5" type="td_0" departLane="best" departSpeed="max" departPos="random"/>
    <trip id="110" depart="670.37" from="683609958#1" to="-5944797" type="td_0" departLane="best" departSpeed="max" departPos="random"/>
    <trip id="111" depart="670.37" from="-26675974" to="4730408#3" type="td_0" departLane="best" departSpeed="max" departPos="random"/>
    <trip id="112" depart="677.37" from="26645942#0" to="-699663268#7.15" type="td_0" departLane="best" departSpeed="max" departPos="random"/>
    <trip id="113" depart="677.37" from="527458585#1.18" to="-374535325#4" type="td_0" departLane="best" departSpeed="max" departPos="random"/>
    <trip id="114" depart="681.37" from="4743769#3" to="-313465298#1" type="td_0" departLane="best" departSpeed="max" departPos="random"/>
    <trip id="115" depart="681.37" from="-28630236#0" to="-1324070803" type="td_0" departLane="best" departSpeed="max" departPos="random"/>
    <trip id="116" depart="686.37" from="26645212#2" to="-683609958#4" type="td_0" departLane="best" departSpeed="max" departPos="random"/>
    <trip id="117" depart="688.37" from="-5944790#3" to="31240870#1" type="td_0" departLane="best" departSpeed="max" departPos="random"/>
    <trip id="118" depart="690.37" from="-4803428#5" to="70748311#1" type="td_0" departLane="best" departSpeed="max" departPos="random"/>
    <trip id="119" depart="691.37" from="536841066" to="-1037128393#0" type="td_0" departLane="best" departSpeed="max" departPos="random"/>
    <trip id="120" depart="692.37" from="1346189642#1" to="159977163#1" type="td_0" departLane="best" departSpeed="max" departPos="random"/>
    <trip id="121" depart="695.37" from="596514086#3" to="182071998#0" type="td_0" departLane="best" departSpeed="max" departPos="random"/>
    <trip id="122" depart="696.37" from="-1211302819#0" to="-313465295#4" type="td_0" departLane="best" departSpeed="max" departPos="random"/>
    <trip id="123" depart="700.37" from="5772447#2" to="70748314#1" type="td_0" departLane="best" departSpeed="max" departPos="random"/>
    <trip id="124" depart="702.37" from="-28682845#0" to="1230989714" type="td_0" departLane="best" departSpeed="max" departPos="random"/>
    <trip id="125" depart="704.37" from="-4803425" to="-547047277#2" type="td_0" departLane="best" departSpeed="max" departPos="random"/>
    <trip id="126" depart="706.37" from="4803424#1" to="-527458585#1" type="td_0" departLane="best" departSpeed="max" departPos="random"/>
    <trip id="127" depart="711.37" from="-1139084789#4" to="-4533225#6" type="td_0" departLane="best" departSpeed="max" departPos="random"/>
    <trip id="128" depart="712.37" from="26646987#1" to="-821304189#0" type="td_0" departLane="best" departSpeed="max" departPos="random"/>
    <trip id="129" depart="721.37" from="-4803405#0" to="-159977163#4" type="td_0" departLane="best" departSpeed="max" departPos="random"/>
    <trip id="130" depart="723.37" from="81552990#0" to="284686653#1" type="td_0" departLane="best" departSpeed="max" departPos="random"/>
    <trip id="131" depart="724.37" from="-5944790#1" to="-15218592#1" type="td_0" departLane="best" departSpeed="max" departPos="random"/>
    <trip id="132" depart="724.37" from="-147164233#0" to="81552990#3" type="td_0" departLane="best" departSpeed="max" departPos="random"/>
    <trip id="133" depart="739.37" from="-26646987#2" to="25623162#0" type="td_0" departLane="best" departSpeed="max" departPos="random"/>
    <trip id="134" depart="741.37" from="284686657" to="81552990#0" type="td_0" departLane="best" departSpeed="max" departPos="random"/>
    <trip id="135" depart="742.37" from="548529066#0" to="422991319#1" type="td_0" departLane="best" departSpeed="max" departPos="random"/>
    <trip id="136" depart="743.37" from="-596514086#3" to="-603349777#1" type="td_0" departLane="best" departSpeed="max" departPos="random"/>
    <trip id="137" depart="744.37" from="-27434049" to="-1172206635" type="td_0" departLane="best" departSpeed="max" departPos="random"/>
    <trip id="138" depart="744.37" from="1172206636.38" to="313465298#1" type="td_0" departLane="best" departSpeed="max" departPos="random"/>
    <trip id="139" depart="745.37" from="75470554#1" to="6275382#4" type="td_0" departLane="best" departSpeed="max" departPos="random"/>
    <trip id="140" depart="746.37" from="26646994#1.11" to="-596514086#6" type="td_0" departLane="best" departSpeed="max" departPos="random"/>
    <trip id="141" depart="749.37" from="-536841067#0" to="-28682845#6" type="td_0" departLane="best" departSpeed="max" departPos="random"/>
    <trip id="142" depart="751.37" from="27433890#3" to="4572091.56" type="td_0" departLane="best" departSpeed="max" departPos="random"/>
    <trip id="143" depart="758.37" from="596514114#0" to="-29116100#9" type="td_0" departLane="best" departSpeed="max" departPos="random"/>
    <trip id="144" depart="759.37" from="-791130340#1" to="-536841066" type="td_0" departLane="best" departSpeed="max" departPos="random"/>
    <trip id="145" depart="762.37" from="-374535325#4" to="25623162#0" type="td_0" departLane="best" departSpeed="max" departPos="random"/>
    <trip id="146" depart="765.37" from="-75470557#1" to="699663268#4" type="td_0" departLane="best" departSpeed="max" departPos="random"/>
    <trip id="147" depart="765.37" from="-4558440#8" to="-39013715#1" type="td_0" departLane="best" departSpeed="max" departPos="random"/>
    <trip id="148" depart="768.37" from="-5944790#1" to="-26645212#2" type="td_0" departLane="best" departSpeed="max" departPos="random"/>
    <trip id="149" depart="770.37" from="27014785#0" to="521669302#0" type="td_0" departLane="best" departSpeed="max" departPos="random"/>
    <trip id="150" depart="772.37" from="-5944790#1" to="536837425#2" type="td_0" departLane="best" departSpeed="max" departPos="random"/>
    <trip id="151" depart="772.37" from="26645942#0" to="527458585#1.18" type="td_0" departLane="best" departSpeed="max" departPos="random"/>
    <trip id="152" depart="775.37" from="75470557#1" to="5881742#2" type="td_0" departLane="best" departSpeed="max" departPos="random"/>
    <trip id="153" depart="775.37" from="1367076582#1" to="-27433876#1" type="td_0" departLane="best" departSpeed="max" departPos="random"/>
    <trip id="154" depart="778.37" from="596514086#6" to="5944787#1" type="td_0" departLane="best" departSpeed="max" departPos="random"/>
    <trip id="155" depart="778.37" from="-4440329" to="-83115253#1" type="td_0" departLane="best" departSpeed="max" departPos="random"/>
    <trip id="156" depart="782.49" from="596514114#0" to="-4803512#3" type="td_0" departLane="best" departSpeed="max" departPos="random"/>
    <trip id="157" depart="782.49" from="26645468#1" to="81552990#1" type="td_0" departLane="best" departSpeed="max" departPos="random"/>
    <trip id="158" depart="783.49" from="15675937#0" to="547047229#0" type="td_0" departLane="best" departSpeed="max" departPos="random"/>
    <trip id="159" depart="784.49" from="147390905#10" to="1298876255" type="td_0" departLane="best" departSpeed="max" departPos="random"/>
    <trip id="160" depart="786.49" from="25957947#0" to="-967647590#1" type="td_0" departLane="best" departSpeed="max" departPos="random"/>
    <trip id="161" depart="786.49" from="9935272#1" to="1297166329#1" type="td_0" departLane="best" departSpeed="max" departPos="random"/>
    <trip id="162" depart="786.49" from="548701323#1" to="699663268#5" type="td_0" departLane="best" departSpeed="max" departPos="random"/>
    <trip id="163" depart="798.49" from="-75470557#1" to="-377260838#2" type="td_0" departLane="best" departSpeed="max" departPos="random"/>
    <trip id="164" depart="800.49" from="-5944790#1" to="-861311402#5" type="td_0" departLane="best" departSpeed="max" departPos="random"/>
    <trip id="165" depart="800.49" from="179097891#0" to="422991319#1" type="td_0" departLane="best" departSpeed="max" departPos="random"/>
    <trip id="166" depart="800.49" from="45042939#1" to="28630236#00" type="td_0" departLane="best" departSpeed="max" departPos="random"/>
    <trip id="167" depart="803.49" from="43566486#0" to="33693799#1" type="td_0" departLane="best" departSpeed="max" departPos="random"/>
    <trip id="168" depart="807.49" from="26645212#4" to="47449364#1" type="td_0" departLane="best" departSpeed="max" departPos="random"/>
    <trip id="169" depart="807.49" from="289146494#1" to="9935272#5" type="td_0" departLane="best" departSpeed="max" departPos="random"/>
    <trip id="170" depart="807.49" from="-1346229232" to="26154816#0" type="td_0" departLane="best" departSpeed="max" departPos="random"/>
    <trip id="171" depart="809.49" from="1172206636.38" to="-27433746" type="td_0" departLane="best" departSpeed="max" departPos="random"/>
    <trip id="172" depart="811.49" from="-E5" to="4743768#1" type="td_0" departLane="best" departSpeed="max" departPos="random"/>
    <trip id="173" depart="813.49" from="147161802" to="1384314608#1" type="td_0" departLane="best" departSpeed="max" departPos="random"/>
    <trip id="174" depart="813.49" from="-E5" to="-29116100#6" type="td_0" departLane="best" departSpeed="max" departPos="random"/>
    <trip id="175" depart="816.49" from="26645995#1" to="164974564#1" type="td_0" departLane="best" departSpeed="max" departPos="random"/>
    <trip id="176" depart="818.49" from="-298904471#1" to="1169703853" type="td_0" departLane="best" departSpeed="max" departPos="random"/>
    <trip id="177" depart="818.49" from="-521669304#2" to="-147390907#0" type="td_0" departLane="best" departSpeed="max" departPos="random"/>
    <trip id="178" depart="818.49" from="83115254#1" to="422991319#2" type="td_0" departLane="best" departSpeed="max" departPos="random"/>
    <trip id="179" depart="818.49" from="-1111971585#2" to="6275380#0" type="td_0" departLane="best" departSpeed="max" departPos="random"/>
    <trip id="180" depart="821.49" from="1139084789#1" to="313465295#1" type="td_0" departLane="best" departSpeed="max" departPos="random"/>
    <trip id="181" depart="822.49" from="-1213415600#3" to="547047277#4" type="td_0" departLane="best" departSpeed="max" departPos="random"/>
    <trip id="182" depart="823.49" from="159977164#3" to="49600616#3" type="td_0" departLane="best" departSpeed="max" departPos="random"/>
    <trip id="183" depart="825.49" from="860373106#1.9" to="-4803465#2" type="td_0" departLane="best" departSpeed="max" departPos="random"/>
    <trip id="184" depart="827.49" from="20020535#1" to="861311402#2" type="td_0" departLane="best" departSpeed="max" departPos="random"/>
    <trip id="185" depart="828.49" from="-536841067#0" to="29116100#9" type="td_0" departLane="best" departSpeed="max" departPos="random"/>
    <trip id="186" depart="828.49" from="-81552976#0" to="-28420432#1" type="td_0" departLane="best" departSpeed="max" departPos="random"/>
    <trip id="187" depart="828.49" from="-15218217#3" to="5944786#2" type="td_0" departLane="best" departSpeed="max" departPos="random"/>
    <trip id="188" depart="830.49" from="-821304189#0" to="15675745#0" type="td_0" departLane="best" departSpeed="max" departPos="random"/>
    <trip id="189" depart="830.49" from="284686651#1" to="536837425#1" type="td_0" departLane="best" departSpeed="max" departPos="random"/>
    <trip id="190" depart="834.49" from="-4803428#1" to="-298904471#1" type="td_0" departLane="best" departSpeed="max" departPos="random"/>
    <trip id="191" depart="834.49" from="4803424#1" to="29116100#2" type="td_0" departLane="best" departSpeed="max" departPos="random"/>
    <trip id="192" depart="839.49" from="1169703853" to="699663268#12" type="td_0" departLane="best" departSpeed="max" departPos="random"/>
    <trip id="193" depart="839.49" from="1169825562#0" to="27433890#3" type="td_0" departLane="best" departSpeed="max" departPos="random"/>
    <trip id="194" depart="840.49" from="284686649#1" to="15675937#0" type="td_0" departLane="best" departSpeed="max" departPos="random"/>
    <trip id="195" depart="842.49" from="-39013715#1" to="4803427#1" type="td_0" departLane="best" departSpeed="max" departPos="random"/>
    <trip id="196" depart="845.49" from="-26675974" to="-4558438#1" type="td_0" departLane="best" departSpeed="max" departPos="random"/>
    <trip id="197" depart="851.49" from="-55455547#2" to="147390905#1" type="td_0" departLane="best" departSpeed="max" departPos="random"/>
    <trip id="198" depart="855.49" from="374533048" to="-5944791#1" type="td_0" departLane="best" departSpeed="max" departPos="random"/>
    <trip id="199" depart="856.49" from="596514114#0" to="-683609958#1" type="td_0" departLane="best" departSpeed="max" departPos="random"/>
    <trip id="200" depart="859.49" from="5881742#2" to="-29116100#2" type="td_0" departLane="best" departSpeed="max" departPos="random"/>
    <trip id="201" depart="862.49" from="-83115253#1" to="526016660#0" type="td_0" departLane="best" departSpeed="max" departPos="random"/>
    <trip id="202" depart="864.49" from="548701323#1" to="26645995#1" type="td_0" departLane="best" departSpeed="max" departPos="random"/>
    <trip id="203" depart="865.49" from="-29116101#3" to="-29116100#9" type="td_0" departLane="best" departSpeed="max" departPos="random"/>
    <trip id="204" depart="866.49" from="27433890#0.6" to="4803405#0" type="td_0" departLane="best" departSpeed="max" departPos="random"/>
    <trip id="205" depart="867.49" from="284686652#2" to="27433746" type="td_0" departLane="best" departSpeed="max" departPos="random"/>
    <trip id="206" depart="869.49" from="4743764#2" to="1111971585#5" type="td_0" departLane="best" departSpeed="max" departPos="random"/>
    <trip id="207" depart="869.49" from="11917063#0" to="9922841.14" type="td_0" departLane="best" departSpeed="max" departPos="random"/>
    <trip id="208" depart="874.49" from="-32928276" to="-374535325#4" type="td_0" departLane="best" departSpeed="max" departPos="random"/>