<?xml version="1.0" encoding="UTF-8"?>

<!-- generated on 2025-12-01 16:36:40.737243 by Eclipse SUMO randomTrips.py UNKNOWN
<configuration>
    <net-file value="zurich.net.xml"/>
    <output-trip-file value="zurich-demo.rou.xml"/>
    <trip-attributes value="type=&quot;td_0&quot; departLane=&quot;best&quot; departSpeed=&quot;max&quot; departPos=&quot;random&quot;"/>
    <lanes value="True"/>
    <seed value="123"/>
    <end value="16000.0"/>
    <insertion-rate value="1.0 667.0 1333.0 2000.0 3333.0 4445.0 5778.0 9778.0 13333.0 20000.0 13333.0 5333.0 2667.0 1333.0 1223.0 1089.0 3333.0 8333.0 13333.0 8333.0 3333.0 1667.0 667.0 667.0 1667.0 2667.0 8000.0 16667.0 20000.0 16667.0 8000.0 7111.0 6445.0 6111.0 5778.0 5111.0 2778.0 1600.0 1600.0 645.0 1.0"/>
    <random-depart value="True"/>
    <binomial value="10"/>
</configuration>
-->

<routes xmlns:xsi="http://www.w3.org/2001/XMLSchema-instance" xsi:noNamespaceSchemaLocation="http://sumo.dlr.de/xsd/routes_file.xsd">
    <trip id="0" depart="394.24" from="5772446#1" to="4533224#1" type="td_0" departLane="best" departSpeed="max" departPos="random"/>
    <trip id="1" depart="418.24" from="4803456#1" to="-1139084789#4" type="td_0" departLane="best" departSpeed="max" departPos="random"/>
    <trip id="2" depart="420.24" from="-527458585#1" to="526016640#1" type="td_0" departLane="best" departSpeed="max" departPos="random"/>
    <trip id="3" depart="422.24" from="330403834" to="-13863761#3" type="td_0" departLane="best" departSpeed="max" departPos="random"/>
    <trip id="4" depart="422.24" from="-4558441#0" to="4803427#1" type="td_0" departLane="best" departSpeed="max" departPos="random"/>
    <trip id="5" depart="425.24" from="-26645783#1" to="27433890#0.6" type="td_0" departLane="best" departSpeed="max" departPos="random"/>
    <trip id="6" depart="430.24" from="536841066" to="683609958#1" type="td_0" departLane="best" departSpeed="max" departPos="random"/>
    <trip id="7" depart="430.24" from="-1169825565" to="547047277#4" type="td_0" departLane="best" departSpeed="max" departPos="random"/>
    <trip id="8" depart="441.24" from="-1169825567.9" to="521669304#2" type="td_0" departLane="best" departSpeed="max" departPos="random"/>
    <trip id="9" depart="442.24" from="6275380#0" to="-4558440#0" type="td_0" departLane="best" departSpeed="max" departPos="random"/>
    <trip id="10" depart="451.24" from="81552990#3" to="E1" type="td_0" departLane="best" departSpeed="max" departPos="random"/>
    <trip id="11" depart="454.24" from="4803456#1" to="1169825566#10" type="td_0" departLane="best" departSpeed="max" departPos="random"/>
    <trip id="12" depart="462.24" from="-596514086#3" to="-1169825568" type="td_0" departLane="best" departSpeed="max" departPos="random"/>
    <trip id="13" depart="465.24" from="39013715#1" to="-1169703852#1" type="td_0" departLane="best" departSpeed="max" departPos="random"/>
    <trip id="14" depart="479.24" from="5944810#2" to="1297166329#1" type="td_0" departLane="best" departSpeed="max" departPos="random"/>
    <trip id="15" depart="482.24" from="75470550#1" to="-527458585#1" type="td_0" departLane="best" departSpeed="max" departPos="random"/>
    <trip id="16" depart="486.24" from="1169703853" to="1324070803" type="td_0" departLane="best" departSpeed="max" departPos="random"/>
    <trip id="17" depart="487.24" from="179097891#0" to="284686652#2" type="td_0" departLane="best" departSpeed="max" departPos="random"/>
    <trip id="18" depart="502.24" from="-861311402#5" to="1279201427#0" type="td_0" departLane="best" departSpeed="max" departPos="random"/>
    <trip id="19" depart="503.24" from="9935272#1" to="207098958#1" type="td_0" departLane="best" departSpeed="max" departPos="random"/>
    <trip id="20" depart="503.24" from="521669300#1" to="-371342811#1" type="td_0" departLane="best" departSpeed="max" departPos="random"/>
    <trip id="21" depart="516.24" from="-1007827874#1" to="1324070803" type="td_0" departLane="best" departSpeed="max" departPos="random"/>
    <trip id="22" depart="525.24" from="-15217539#0" to="1117202247#1" type="td_0" departLane="best" departSpeed="max" departPos="random"/>
    <trip id="23" depart="530.24" from="83115254#1" to="-164974561#1" type="td_0" departLane="best" departSpeed="max" departPos="random"/>
    <trip id="24" depart="533.24" from="603349776" to="81552989#1" type="td_0" departLane="best" departSpeed="max" departPos="random"/>
    <trip id="25" depart="542.24" from="791130340#1" to="-791130340#1" type="td_0" departLane="best" departSpeed="max" departPos="random"/>
    <trip id="26" depart="544.24" from="289146494#1" to="E3" type="td_0" departLane="best" departSpeed="max" departPos="random"/>
    <trip id="27" depart="551.24" from="-26646028#2" to="15675937#0" type="td_0" departLane="best" departSpeed="max" departPos="random"/>
    <trip id="28" depart="552.24" from="-4803425" to="4803405#0" type="td_0" departLane="best" departSpeed="max" departPos="random"/>
    <trip id="29" depart="552.24" from="422991319#1" to="-683609958#8" type="td_0" departLane="best" departSpeed="max" departPos="random"/>
    <trip id="30" depart="554.24" from="4558441#0" to="-527458585#1" type="td_0" departLane="best" departSpeed="max" departPos="random"/>
    <trip id="31" depart="562.24" from="83115253#0" to="-49600616#6" type="td_0" departLane="best" departSpeed="max" departPos="random"/>
    <trip id="32" depart="568.24" from="-192236405#2" to="298904469#2" type="td_0" departLane="best" departSpeed="max" departPos="random"/>
    <trip id="33" depart="579.24" from="-4743764#2" to="-44906779#2" type="td_0" departLane="best" departSpeed="max" departPos="random"/>
    <trip id="34" depart="583.24" from="1384314607#1" to="5944806#2" type="td_0" departLane="best" departSpeed="max" departPos="random"/>
    <trip id="35" depart="584.24" from="284686648#0" to="208143935#1" type="td_0" departLane="best" departSpeed="max" departPos="random"/>
    <trip id="36" depart="586.24" from="-1117202247#3" to="35162766#0" type="td_0" departLane="best" departSpeed="max" departPos="random"/>
    <trip id="37" depart="592.24" from="-4803425" to="1169825562#0" type="td_0" departLane="best" departSpeed="max" departPos="random"/>
    <trip id="38" depart="593.24" from="1367076582#1" to="526016643#1" type="td_0" departLane="best" departSpeed="max" departPos="random"/>
    <trip id="39" depart="600.24" from="1211302819#0.13" to="-596514114#0" type="td_0" departLane="best" departSpeed="max" departPos="random"/>
    <trip id="40" depart="603.24" from="4558440#7" to="-1117202247#3" type="td_0" departLane="best" departSpeed="max" departPos="random"/>
    <trip id="41" depart="607.24" from="1169825568" to="15734263#1" type="td_0" departLane="best" departSpeed="max" departPos="random"/>
    <trip id="42" depart="607.24" from="1169703852#1" to="1089407128#3" type="td_0" departLane="best" departSpeed="max" departPos="random"/>
    <trip id="43" depart="613.24" from="-26646784#1" to="5944805#1" type="td_0" departLane="best" departSpeed="max" departPos="random"/>
    <trip id="44" depart="618.24" from="967647590#0" to="15675729#0" type="td_0" departLane="best" departSpeed="max" departPos="random"/>
    <trip id="45" depart="626.24" from="-5944790#1" to="521669304#2" type="td_0" departLane="best" departSpeed="max" departPos="random"/>
    <trip id="46" depart="627.24" from="4743768#5" to="28802233#1" type="td_0" departLane="best" departSpeed="max" departPos="random"/>
    <trip id="47" depart="627.24" from="-1117202247#3" to="33693799#1" type="td_0" departLane="best" departSpeed="max" departPos="random"/>
    <trip id="48" depart="629.24" from="29116100#2" to="-1011249147#0" type="td_0" departLane="best" departSpeed="max" departPos="random"/>
    <trip id="49" depart="630.24" from="-527458585#1" to="4572091.56" type="td_0" departLane="best" departSpeed="max" departPos="random"/>
    <trip id="50" depart="631.24" from="-1169825563#1" to="422991319#2" type="td_0" departLane="best" departSpeed="max" departPos="random"/>
    <trip id="51" depart="632.24" from="817867132#0" to="4592590#1" type="td_0" departLane="best" departSpeed="max" departPos="random"/>
    <trip id="52" depart="645.24" from="-29116100#2" to="-4803405#0" type="td_0" departLane="best" departSpeed="max" departPos="random"/>
    <trip id="53" depart="648.24" from="526016640#1" to="-1111971585#5" type="td_0" departLane="best" departSpeed="max" departPos="random"/>
    <trip id="54" depart="648.24" from="-1089407128#3" to="860373106#1" type="td_0" departLane="best" departSpeed="max" departPos="random"/>
    <trip id="55" depart="651.24" from="26154816#0" to="28630236#00" type="td_0" departLane="best" departSpeed="max" departPos="random"/>
    <trip id="56" depart="663.24" from="683609958#1" to="-5944797" type="td_0" departLane="best" departSpeed="max" departPos="random"/>
    <trip id="57" depart="667.24" from="-26675974" to="4730408#3" type="td_0" departLane="best" departSpeed="max" departPos="random"/>
    <trip id="58" depart="670.24" from="26645942#0" to="-699663268#7.15" type="td_0" departLane="best" departSpeed="max" departPos="random"/>
    <trip id="59" depart="674.24" from="4743769#3" to="-313465298#1" type="td_0" departLane="best" departSpeed="max" departPos="random"/>
    <trip id="60" depart="676.24" from="-28630236#0" to="-1324070803" type="td_0" departLane="best" departSpeed="max" departPos="random"/>
    <trip id="61" depart="681.24" from="26645212#2" to="-683609958#4" type="td_0" departLane="best" departSpeed="max" departPos="random"/>
    <trip id="62" depart="690.24" from="536841066" to="-1037128393#0" type="td_0" departLane="best" departSpeed="max" departPos="random"/>
    <trip id="63" depart="697.24" from="1346189642#1" to="159977163#1" type="td_0" departLane="best" departSpeed="max" departPos="random"/>
    <trip id="64" depart="705.24" from="596514086#3" to="182071998#0" type="td_0" departLane="best" departSpeed="max" departPos="random"/>
    <trip id="65" depart="707.24" from="-1211302819#0" to="-313465295#4" type="td_0" departLane="best" departSpeed="max" departPos="random"/>
    <trip id="66" depart="707.24" from="-28682845#0" to="1230989714" type="td_0" departLane="best" departSpeed="max" departPos="random"/>
    <trip id="67" depart="708.24" from="4803424#1" to="-527458585#1" type="td_0" departLane="best" departSpeed="max" departPos="random"/>
    <trip id="68" depart="708.24" from="-1139084789#4" to="-4533225#6" type="td_0" departLane="best" departSpeed="max" departPos="random"/>
    <trip id="69" depart="717.24" from="-4803405#0" to="-159977163#4" type="td_0" departLane="best" departSpeed="max" departPos="random"/>
    <trip id="70" depart="733.24" from="81552990#0" to="284686653#1" type="td_0" departLane="best" departSpeed="max" departPos="random"/>
    <trip id="71" depart="734.24" from="-5944790#1" to="-15218592#1" type="td_0" departLane="best" departSpeed="max" departPos="random"/>
    <trip id="72" depart="735.24" from="-147164233#0" to="81552990#3" type="td_0" departLane="best" departSpeed="max" departPos="random"/>
    <trip id="73" depart="741.24" from="-26646987#2" to="25623162#0" type="td_0" departLane="best" departSpeed="max" departPos="random"/>
    <trip id="74" depart="742.24" from="548529066#0" to="422991319#1" type="td_0" departLane="best" departSpeed="max" departPos="random"/>
    <trip id="75" depart="746.24" from="-1384314608#1" to="1230989714" type="td_0" departLane="best" departSpeed="max" departPos="random"/>
    <trip id="76" depart="750.24" from="75470554#1" to="6275382#4" type="td_0" departLane="best" departSpeed="max" departPos="random"/>
    <trip id="77" depart="770.24" from="26646994#1.11" to="-596514086#6" type="td_0" departLane="best" departSpeed="max" departPos="random"/>
    <trip id="78" depart="771.24" from="27433890#3" to="4572091.56" type="td_0" departLane="best" departSpeed="max" departPos="random"/>
    <trip id="79" depart="779.24" from="-791130340#1" to="-536841066" type="td_0" departLane="best" departSpeed="max" departPos="random"/>
    <trip id="80" depart="783.49" from="-75470557#1" to="699663268#4" type="td_0" departLane="best" departSpeed="max" departPos="random"/>
    <trip id="81" depart="784.49" from="-4558440#8" to="-39013715#1" type="td_0" departLane="best" departSpeed="max" departPos="random"/>
    <trip id="82" depart="785.49" from="-5944790#1" to="-26645212#2" type="td_0" departLane="best" departSpeed="max" departPos="random"/>
    <trip id="83" depart="786.49" from="-5944790#1" to="536837425#2" type="td_0" departLane="best" departSpeed="max" departPos="random"/>
    <trip id="84" depart="787.49" from="26645942#0" to="527458585#1.18" type="td_0" departLane="best" departSpeed="max" departPos="random"/>
    <trip id="85" depart="792.49" from="75470557#1" to="5881742#2" type="td_0" departLane="best" departSpeed="max" departPos="random"/>
    <trip id="86" depart="793.49" from="596514086#6" to="5944787#1" type="td_0" departLane="best" departSpeed="max" departPos="random"/>
    <trip id="87" depart="800.49" from="-4440329" to="-83115253#1" type="td_0" departLane="best" departSpeed="max" departPos="random"/>
    <trip id="88" depart="801.49" from="596514114#0" to="-4803512#3" type="td_0" departLane="best" departSpeed="max" departPos="random"/>
    <trip id="89" depart="809.49" from="26645468#1" to="81552990#1" type="td_0" departLane="best" departSpeed="max" departPos="random"/>
    <trip id="90" depart="813.49" from="15675937#0" to="547047229#0" type="td_0" departLane="best" departSpeed="max" departPos="random"/>
    <trip id="91" depart="815.49" from="25957947#0" to="-967647590#1" type="td_0" departLane="best" departSpeed="max" departPos="random"/>
    <trip id="92" depart="817.49" from="9935272#1" to="1297166329#1" type="td_0" departLane="best" departSpeed="max" departPos="random"/>
    <trip id="93" depart="821.49" from="548701323#1" to="699663268#5" type="td_0" departLane="best" departSpeed="max" departPos="random"/>
    <trip id="94" depart="821.49" from="-75470557#1" to="-377260838#2" type="td_0" departLane="best" departSpeed="max" departPos="random"/>
    <trip id="95" depart="823.49" from="-5944790#1" to="-861311402#5" type="td_0" departLane="best" departSpeed="max" departPos="random"/>
    <trip id="96" depart="826.49" from="179097891#0" to="422991319#1" type="td_0" departLane="best" departSpeed="max" departPos="random"/>
    <trip id="97" depart="829.49" from="26645212#4" to="47449364#1" type="td_0" departLane="best" departSpeed="max" departPos="random"/>
    <trip id="98" depart="829.49" from="-1346229232" to="26154816#0" type="td_0" departLane="best" departSpeed="max" departPos="random"/>
    <trip id="99" depart="831.49" from="1172206636.38" to="-27433746" type="td_0" departLane="best" departSpeed="max" departPos="random"/>
    <trip id="100" depart="832.49" from="147161802" to="1384314608#1" type="td_0" departLane="best" departSpeed="max" departPos="random"/>
    <trip id="101" depart="835.49" from="-E5" to="-29116100#6" type="td_0" departLane="best" departSpeed="max" departPos="random"/>
    <trip id="102" depart="841.49" from="26645995#1" to="164974564#1" type="td_0" departLane="best" departSpeed="max" departPos="random"/>
    <trip id="103" depart="848.49" from="-298904471#1" to="1169703853" type="td_0" departLane="best" departSpeed="max" departPos="random"/>
    <trip id="104" depart="850.49" from="-521669304#2" to="-147390907#0" type="td_0" departLane="best" departSpeed="max" departPos="random"/>
    <trip id="105" depart="853.49" from="-1111971585#2" to="6275380#0" type="td_0" departLane="best" departSpeed="max" departPos="random"/>
    <trip id="106" depart="854.49" from="1139084789#1" to="313465295#1" type="td_0" departLane="best" departSpeed="max" departPos="random"/>
    <trip id="107" depart="854.49" from="159977164#3" to="49600616#3" type="td_0" departLane="best" departSpeed="max" departPos="random"/>
    <trip id="108" depart="856.49" from="-81552976#0" to="-28420432#1" type="td_0" departLane="best" departSpeed="max" departPos="random"/>
    <trip id="109" depart="859.49" from="-15218217#3" to="5944786#2" type="td_0" departLane="best" departSpeed="max" departPos="random"/>
    <trip id="110" depart="864.49" from="284686651#1" to="536837425#1" type="td_0" departLane="best" departSpeed="max" departPos="random"/>
    <trip id="111" depart="867.49" from="-4803428#1" to="-298904471#1" type="td_0" departLane="best" departSpeed="max" departPos="random"/>
    <trip id="112" depart="868.49" from="1169703853" to="699663268#12" type="td_0" departLane="best" departSpeed="max" departPos="random"/>
    <trip id="113" depart="871.49" from="1169825562#0" to="27433890#3" type="td_0" departLane="best" departSpeed="max" departPos="random"/>
    <trip id="114" depart="872.49" from="284686649#1" to="15675937#0" type="td_0" departLane="best" departSpeed="max" departPos="random"/>
    <trip id="115" depart="873.49" from="-39013715#1" to="4803427#1" type="td_0" departLane="best" departSpeed="max" departPos="random"/>
    <trip id="116" depart="874.49" from="-55455547#2" to="147390905#1" type="td_0" departLane="best" departSpeed="max" departPos="random"/>
    <trip id="117" depart="876.49" from="-83115253#1" to="526016660#0" type="td_0" departLane="best" departSpeed="max" departPos="random"/>
    <trip id="118" depart="878.49" from="-29116101#3" to="-29116100#9" type="td_0" departLane="best" departSpeed="max" departPos="random"/>
    <trip id="119" depart="879.49" from="284686652#2" to="27433746" type="td_0" departLane="best" departSpeed="max" departPos="random"/>
    <trip id="120" depart="881.49" from="4743764#2" to="1111971585#5" type="td_0" departLane="best" departSpeed="max" departPos="random"/>
    <trip id="121" depart="883.49" from="-32928276" to="-374535325#4" type="td_0" departLane="best" departSpeed="max" departPos="random"/>
    <trip id="122" depart="884.49" from="-26645212#2" to="521669304#2" type="td_0" departLane="best" departSpeed="max" departPos="random"/>
    <trip id="123" depart="885.49" from="842455631" to="68485346#2" type="td_0" departLane="best" departSpeed="max" departPos="random"/>
    <trip id="124" depart="885.49" from="147390905#10" to="-1384314607#2" type="td_0" departLane="best" departSpeed="max" departPos="random"/>
    <trip id="125" depart="887.49" from="-521669304#0" to="-15675745#0" type="td_0" departLane="best" departSpeed="max" departPos="random"/>
    <trip id="126" depart="888.49" from="-208143935#1" to="1169825566#10" type="td_0" departLane="best" departSpeed="max" departPos="random"/>
    <trip id="127" depart="889.49" from="179097891#0" to="81552976#0" type="td_0" departLane="best" departSpeed="max" departPos="random"/>
    <trip id="128" depart="889.49" from="-1169825562#0" to="284686651#1" type="td_0" departLane="best" departSpeed="max" departPos="random"/>
    <trip id="129" depart="895.49" from="4803405#0" to="5944790#1" type="td_0" departLane="best" departSpeed="max" departPos="random"/>
    <trip id="130" depart="908.49" from="-43566486#0" to="-6275383#6" type="td_0" departLane="best" departSpeed="max" departPos="random"/>
    <trip id="131" depart="909.49" from="-39013715#1" to="967647587#1" type="td_0" departLane="best" departSpeed="max" departPos="random"/>
    <trip id="132" depart="909.49" from="527458585#1.18" to="4592657#1" type="td_0" departLane="best" departSpeed="max" departPos="random"/>
    <trip id="133" depart="910.49" from="-596514115#1" to="-81552976#0" type="td_0" departLane="best" departSpeed="max" departPos="random"/>
    <trip id="134" depart="911.49" from="-596514086#3" to="596514086#3" type="td_0" departLane="best" departSpeed="max" departPos="random"/>
    <trip id="135" depart="911.49" from="27014785#0" to="9935272#5" type="td_0" departLane="best" departSpeed="max" departPos="random"/>
    <trip id="136" depart="913.49" from="603349776" to="-521669304#0" type="td_0" departLane="best" departSpeed="max" departPos="random"/>
    <trip id="137" depart="925.49" from="28682845#6" to="4803456#1" type="td_0" departLane="best" departSpeed="max" departPos="random"/>
    <trip id="138" depart="927.49" from="49872902" to="68485346#2" type="td_0" departLane="best" departSpeed="max" departPos="random"/>
    <trip id="139" depart="929.49" from="-1169703852#1" to="26646437#1" type="td_0" departLane="best" departSpeed="max" departPos="random"/>
    <trip id="140" depart="931.49" from="374535325#1" to="4687928#0" type="td_0" departLane="best" departSpeed="max" departPos="random"/>
    <trip id="141" depart="937.49" from="371342811#1" to="-1365026910#3" type="td_0" departLane="best" departSpeed="max" departPos="random"/>
    <trip id="142" depart="939.49" from="-298904471#1" to="4743766#1" type="td_0" departLane="best" departSpeed="max" departPos="random"/>
    <trip id="143" depart="943.49" from="49519792#0" to="-32928276" type="td_0" departLane="best" departSpeed="max" departPos="random"/>
    <trip id="144" depart="944.49" from="26647215#1" to="208143937#1" type="td_0" departLane="best" departSpeed="max" departPos="random"/>
    <trip id="145" depart="947.49" from="4440329" to="49600616#1" type="td_0" departLane="best" departSpeed="max" departPos="random"/>
    <trip id="146" depart="954.49" from="-13863761#3" to="548701323#1" type="td_0" departLane="best" departSpeed="max" departPos="random"/>
    <trip id="147" depart="955.49" from="-5944789#5" to="284686652#2" type="td_0" departLane="best" departSpeed="max" departPos="random"/>
    <trip id="148" depart="959.49" from="699663268#5" to="29116100#6" type="td_0" departLane="best" departSpeed="max" departPos="random"/>
    <trip id="149" depart="961.49" from="596514114#0" to="-159977164#4" type="td_0" departLane="best" departSpeed="max" departPos="random"/>
    <trip id="150" depart="961.49" from="526016662#0" to="-29116101#3" type="td_0" departLane="best" departSpeed="max" departPos="random"/>
    <trip id="151" depart="963.49" from="4533228#5" to="699663268#5" type="td_0" departLane="best" departSpeed="max" departPos="random"/>
    <trip id="152" depart="966.49" from="1139084789#1" to="28682845#6" type="td_0" departLane="best" departSpeed="max" departPos="random"/>
    <trip id="153" depart="971.49" from="-4743769#3" to="-4533227#1.24" type="td_0" departLane="best" departSpeed="max" departPos="random"/>
    <trip id="154" depart="973.49" from="-596514114#0" to="-75470557#1" type="td_0" departLane="best" departSpeed="max" departPos="random"/>
    <trip id="155" depart="974.49" from="536841067#0" to="488736536#1" type="td_0" departLane="best" departSpeed="max" departPos="random"/>
    <trip id="156" depart="977.49" from="1121159178#0" to="28682845#1" type="td_0" departLane="best" departSpeed="max" departPos="random"/>
    <trip id="157" depart="977.49" from="9935272#1" to="671965939#6" type="td_0" departLane="best" departSpeed="max" departPos="random"/>
    <trip id="158" depart="980.49" from="-29116100#2" to="147164233#2" type="td_0" departLane="best" departSpeed="max" departPos="random"/>
    <trip id="159" depart="980.49" from="603349776" to="1211302819#0.13" type="td_0" departLane="best" departSpeed="max" departPos="random"/>
    <trip id="160" depart="988.49" from="4743768#1" to="-79855537#0" type="td_0" departLane="best" departSpeed="max" departPos="random"/>
    <trip id="161" depart="990.49" from="1169825567" to="1089407128#3" type="td_0" departLane="best" departSpeed="max" departPos="random"/>
    <trip id="162" depart="993.49" from="5944805#1" to="-15218592#1" type="td_0" departLane="best" departSpeed="max" departPos="random"/>
    <trip id="163" depart="1000.49" from="671965938" to="-547047277#2" type="td_0" departLane="best" departSpeed="max" departPos="random"/>
    <trip id="164" depart="1000.49" from="4687928#4" to="4803426#0" type="td_0" departLane="best" departSpeed="max" departPos="random"/>
    <trip id="165" depart="1002.49" from="-596514114#1" to="-860373106#1" type="td_0" departLane="best" departSpeed="max" departPos="random"/>
    <trip id="166" depart="1003.49" from="4803456#8" to="-81358773#0" type="td_0" departLane="best" departSpeed="max" departPos="random"/>
    <trip id="167" depart="1006.49" from="147164232#0" to="4803428#5" type="td_0" departLane="best" departSpeed="max" departPos="random"/>
    <trip id="168" depart="1009.49" from="45042940" to="-4572091" type="td_0" departLane="best" departSpeed="max" departPos="random"/>
    <trip id="169" depart="1009.49" from="147164232#0" to="70748311#1" type="td_0" departLane="best" departSpeed="max" departPos="random"/>
    <trip id="170" depart="1010.49" from="82956882.11" to="-49519792#0" type="td_0" departLane="best" departSpeed="max" departPos="random"/>
    <trip id="171" depart="1014.49" from="-5944791#1" to="1169703853" type="td_0" departLane="best" departSpeed="max" departPos="random"/>
    <trip id="172" depart="1015.49" from="-298904469#2" to="-E0" type="td_0" departLane="best" departSpeed="max" departPos="random"/>
    <trip id="173" depart="1020.49" from="70748314#1" to="-547047277#2" type="td_0" departLane="best" departSpeed="max" departPos="random"/>
    <trip id="174" depart="1020.49" from="43566484#6" to="-26646102#2" type="td_0" departLane="best" departSpeed="max" departPos="random"/>
    <trip id="175" depart="1025.49" from="4533228#1" to="26645468#1" type="td_0" departLane="best" departSpeed="max" departPos="random"/>
    <trip id="176" depart="1028.49" from="192236405#1" to="-27433876#1" type="td_0" departLane="best" departSpeed="max" departPos="random"/>
    <trip id="177" depart="1029.49" from="4743769#3" to="6275382#1" type="td_0" departLane="best" departSpeed="max" departPos="random"/>
    <trip id="178" depart="1036.49" from="603349776" to="-43566484#7" type="td_0" departLane="best" departSpeed="max" departPos="random"/>
    <trip id="179" depart="1037.49" from="-147164233#2" to="1324076749#0" type="td_0" departLane="best" departSpeed="max" departPos="random"/>
    <trip id="180" depart="1041.49" from="521669302#0" to="28802323#1" type="td_0" departLane="best" departSpeed="max" departPos="random"/>
    <trip id="181" depart="1041.49" from="-699663268#2" to="-75470557#1" type="td_0" departLane="best" departSpeed="max" departPos="random"/>
    <trip id="182" depart="1049.49" from="27433890#3" to="-44906784#3" type="td_0" departLane="best" departSpeed="max" departPos="random"/>
    <trip id="183" depart="1050.49" from="-298904471#1" to="1346189639" type="td_0" departLane="best" departSpeed="max" departPos="random"/>
    <trip id="184" depart="1050.49" from="1346189641#4" to="-26646028#2" type="td_0" departLane="best" departSpeed="max" departPos="random"/>
    <trip id="185" depart="1051.49" from="147390905#6" to="-70732845#4" type="td_0" departLane="best" departSpeed="max" departPos="random"/>
    <trip id="186" depart="1061.49" from="-170032512#1" to="28682845#0" type="td_0" departLane="best" departSpeed="max" departPos="random"/>
    <trip id="187" depart="1062.49" from="6275382#4" to="81552989#4" type="td_0" departLane="best" departSpeed="max" departPos="random"/>
    <trip id="188" depart="1067.49" from="4730718#0" to="4803456#1" type="td_0" departLane="best" departSpeed="max" departPos="random"/>
    <trip id="189" depart="1068.49" from="15675745#0" to="-29116100#6" type="td_0" departLane="best" departSpeed="max" departPos="random"/>
    <trip id="190" depart="1072.49" from="-28951462#1" to="15218217#3" type="td_0" departLane="best" departSpeed="max" departPos="random"/>
    <trip id="191" depart="1073.49" from="-29116101#3" to="1169825563#10" type="td_0" departLane="best" departSpeed="max" departPos="random"/>
    <trip id="192" depart="1078.49" from="-699663268#4" to="29116100#6" type="td_0" departLane="best" departSpeed="max" departPos="random"/>
    <trip id="193" depart="1082.49" from="6275382#4" to="-28682845#0" type="td_0" departLane="best" departSpeed="max" departPos="random"/>
    <trip id="194" depart="1083.49" from="1169703853" to="-527458585#1" type="td_0" departLane="best" departSpeed="max" departPos="random"/>
    <trip id="195" depart="1090.49" from="-55455547#2" to="521669300#1" type="td_0" departLane="best" departSpeed="max" departPos="random"/>
    <trip id="196" depart="1090.49" from="-164974562#3" to="1346189639" type="td_0" departLane="best" departSpeed="max" departPos="random"/>
    <trip id="197" depart="1092.49" from="683609958#8" to="4627818#0" type="td_0" departLane="best" departSpeed="max" departPos="random"/>
    <trip id="198" depart="1093.49" from="4730408#3" to="26645827#1" type="td_0" departLane="best" departSpeed="max" departPos="random"/>
    <trip id="199" depart="1095.49" from="-861311402#5" to="-536841066" type="td_0" departLane="best" departSpeed="max" departPos="random"/>
    <trip id="200" depart="1095.49" from="4592655#1" to="83115253#1" type="td_0" departLane="best" departSpeed="max" departPos="random"/>
    <trip id="201" depart="1096.49" from="25623162#0" to="15675745#0" type="td_0" departLane="best" departSpeed="max" departPos="random"/>
    <trip id="202" depart="1103.49" from="4592657#1" to="179097891#0" type="td_0" departLane="best" departSpeed="max" departPos="random"/>
    <trip id="203" depart="1104.49" from="4803456#8" to="9935272#5" type="td_0" departLane="best" departSpeed="max" departPos="random"/>
    <trip id="204" depart="1105.49" from="29116100#4" to="-6275383#6" type="td_0" departLane="best" departSpeed="max" departPos="random"/>
    <trip id="205" depart="1107.49" from="4533224#8" to="-860373106#10" type="td_0" departLane="best" departSpeed="max" departPos="random"/>
    <trip id="206" depart="1114.49" from="-81552976#0" to="-43566484#7" type="td_0" departLane="best" departSpeed="max" departPos="random"/>
    <trip id="207" depart="1116.49" from="547047229#0" to="-5944790#3" type="td_0" departLane="best" departSpeed="max" departPos="random"/>