<?xml version="1.0" encoding="UTF-8"?>

<!-- generated on 2025-12-03T16:20:33.506465+07:00 by Eclipse SUMO netedit 1.25.0
<neteditConfiguration xmlns:xsi="http://www.w3.org/2001/XMLSchema-instance" xsi:noNamespaceSchemaLocation="http://sumo.dlr.de/xsd/neteditConfiguration.xsd">

    <input>
        <sumocfg-file value="zurich.sumocfg"/>
        <additional-files value="detector.add.xml"/>
        <sumo-net-file value="zurich.net.xml"/>
    </input>

    <output>
        <output-file value="zurich.net.xml"/>
    </output>

    <processing>
        <geometry.min-radius.fix.railways value="false"/>
        <geometry.avoid-overlap value="false"/>
        <geometry.max-grade.fix value="false"/>
        <offset.disable-normalization value="true"/>
        <lefthand value="0"/>
    </processing>

    <junctions>
        <no-turnarounds value="true"/>
        <junctions.corner-detail value="5"/>
        <junctions.limit-turn-speed value="5.50"/>
        <rectangular-lane-cut value="0"/>
    </junctions>

    <pedestrian>
        <walkingareas value="0"/>
    </pedestrian>

    <netedit>
        <ignore.routeelements value="false"/>
    </netedit>

</neteditConfiguration>
-->

<net version="1.20" junctionCornerDetail="5" limitTurnSpeed="5.50" avoidOverlap="0" xmlns:xsi="http://www.w3.org/2001/XMLSchema-instance" xsi:noNamespaceSchemaLocation="http://sumo.dlr.de/xsd/net_file.xsd">

    <location netOffset="-462716.54,-5245963.27" convBoundary="1534.64,825.46,4480.08,3405.44" origBoundary="8.506179,47.352939,8.541221,47.385562" projParameter="+proj=utm +zone=32 +ellps=WGS84 +datum=WGS84 +units=m +no_defs"/>

    <type id="highway.living_street" priority="2" numLanes="1" speed="2.78" oneway="0"/>
    <type id="highway.primary" priority="12" numLanes="2" speed="27.78" oneway="0"/>
    <type id="highway.residential" priority="3" numLanes="1" speed="13.89" oneway="0"/>
    <type id="highway.tertiary" priority="10" numLanes="1" speed="22.22" oneway="0"/>

    <edge id=":10269914582_0" function="internal">
        <lane id=":10269914582_0_0" index="0" speed="13.89" length="0.30" width="3.00" shape="3478.50,1579.00 3478.42,1579.28"/>
    </edge>
    <edge id=":10703137775_0" function="internal">
        <lane id=":10703137775_0_0" index="0" speed="13.89" length="8.16" width="7.75" shape="3627.60,2936.65 3625.77,2938.24 3624.70,2939.53 3623.58,2940.78 3621.66,2942.20"/>
    </edge>
    <edge id=":10703137775_1" function="internal">
        <lane id=":10703137775_1_0" index="0" speed="13.89" length="8.09" width="5.17" shape="3617.60,2935.60 3619.22,2933.90 3619.61,2932.07 3619.96,2930.19 3621.47,2928.32"/>
        <lane id=":10703137775_1_1" index="1" speed="13.89" length="8.09" width="5.17" shape="3617.60,2935.60 3619.62,2934.59 3621.13,2934.14 3622.61,2933.65 3624.53,2932.49"/>
    </edge>
    <edge id=":10703137779_0" function="internal">
        <lane id=":10703137779_0_0" index="0" speed="13.89" length="8.69" width="5.17" shape="3842.46,2763.86 3840.95,2765.98 3840.66,2767.99 3840.36,2769.98 3838.81,2772.05"/>
        <lane id=":10703137779_0_1" index="1" speed="13.89" length="8.69" width="5.17" shape="3842.46,2763.86 3840.52,2765.28 3839.02,2766.00 3837.49,2766.69 3835.52,2768.06"/>
    </edge>
    <edge id=":10703137779_2" function="internal">
        <lane id=":10703137779_2_0" index="0" speed="13.89" length="7.95" width="7.75" shape="3832.23,2764.08 3833.90,2762.44 3834.81,2761.09 3835.72,2759.72 3837.34,2758.03"/>
    </edge>
    <edge id=":107204550_0" function="internal">
        <lane id=":107204550_0_0" index="0" speed="8.33" length="0.75" shape="2503.54,1343.00 2503.29,1342.88 2503.12,1342.80 2502.96,1342.70 2502.72,1342.55"/>
        <lane id=":107204550_0_1" index="1" speed="8.33" length="0.75" shape="2504.91,1340.11 2504.76,1340.04 2504.66,1339.98 2504.56,1339.93 2504.41,1339.84"/>
    </edge>
    <edge id=":107204550_2" function="internal">
        <lane id=":107204550_2_0" index="0" speed="8.33" length="0.19" shape="2506.11,1337.12 2506.15,1337.15 2506.19,1337.17 2506.22,1337.19 2506.27,1337.21"/>
    </edge>
    <edge id=":10876277432_0" function="internal">
        <lane id=":10876277432_0_0" index="0" speed="13.89" length="8.40" shape="2167.81,1737.73 2165.47,1736.82 2163.59,1736.91 2161.70,1737.00 2159.36,1736.09"/>
        <lane id=":10876277432_0_1" index="1" speed="13.89" length="8.40" shape="2167.81,1737.73 2161.09,1733.40"/>
    </edge>
    <edge id=":10876277432_2" function="internal">
        <lane id=":10876277432_2_0" index="0" speed="13.89" length="8.00" shape="2162.83,1730.71 2169.55,1735.04"/>
    </edge>
    <edge id=":10877414544_0" function="internal">
        <lane id=":10877414544_0_0" index="0" speed="13.89" length="8.23" width="7.75" shape="3898.98,2712.34 3897.36,2714.15 3896.46,2715.58 3895.54,2716.99 3893.86,2718.74"/>
    </edge>
    <edge id=":10877414544_1" function="internal">
        <lane id=":10877414544_1_0" index="0" speed="13.89" length="8.49" width="5.17" shape="3888.75,2712.92 3890.17,2710.86 3890.36,2708.91 3890.52,2706.93 3891.89,2704.81"/>
        <lane id=":10877414544_1_1" index="1" speed="13.89" length="8.49" width="5.17" shape="3888.75,2712.92 3890.65,2711.51 3892.13,2710.79 3893.59,2710.04 3895.44,2708.58"/>
    </edge>
    <edge id=":10877414545_0" function="internal">
        <lane id=":10877414545_0_0" index="0" speed="13.89" length="8.08" width="7.75" shape="4038.23,2579.87 4036.63,2581.62 4035.76,2583.04 4034.90,2584.45 4033.31,2586.23"/>
    </edge>
    <edge id=":10877414545_1" function="internal">
        <lane id=":10877414545_1_0" index="0" speed="13.89" length="8.68" width="5.17" shape="4027.99,2580.60 4029.40,2578.43 4029.59,2576.42 4029.78,2574.42 4031.22,2572.27"/>
        <lane id=":10877414545_1_1" index="1" speed="13.89" length="8.68" width="5.17" shape="4027.99,2580.60 4029.86,2579.10 4031.34,2578.32 4032.83,2577.55 4034.72,2576.07"/>
    </edge>
    <edge id=":10891548846_0" function="internal">
        <lane id=":10891548846_0_0" index="0" speed="6.95" length="6.77" shape="3238.30,2403.23 3236.34,2403.68 3235.00,2403.99 3233.68,2404.38 3231.79,2405.06"/>
    </edge>
    <edge id=":10891548846_1" function="internal">
        <lane id=":10891548846_1_0" index="0" speed="6.95" length="2.09" shape="3235.54,2400.04 3234.68,2401.94"/>
    </edge>
    <edge id=":10891548846_2" function="internal">
        <lane id=":10891548846_2_0" index="0" speed="6.95" length="4.32" shape="3234.68,2401.94 3233.76,2403.41 3232.80,2404.45 3231.79,2405.06"/>
    </edge>
    <edge id=":1233603796_0" function="internal">
        <lane id=":1233603796_0_0" index="0" speed="11.11" length="2.61" shape="3263.37,3132.11 3262.68,3132.45 3262.21,3132.69 3261.75,3132.95 3261.08,3133.35"/>
    </edge>
    <edge id=":12641024991_0" function="internal">
        <lane id=":12641024991_0_0" index="0" speed="8.33" length="7.95" shape="2338.08,2610.50 2331.10,2614.31"/>
    </edge>
    <edge id=":12641024991_1" function="internal">
        <lane id=":12641024991_1_0" index="0" speed="8.33" length="8.41" shape="2329.54,2611.52 2331.46,2609.88 2332.28,2608.17 2333.11,2606.47 2335.05,2604.86"/>
        <lane id=":12641024991_1_1" index="1" speed="8.33" length="8.41" shape="2329.54,2611.52 2336.56,2607.68"/>
    </edge>
    <edge id=":12660010312_0" function="internal">
        <lane id=":12660010312_0_0" index="0" speed="13.89" length="8.21" shape="3678.19,1176.90 3679.36,1179.01 3680.50,1180.27 3681.63,1181.52 3682.80,1183.63"/>
        <lane id=":12660010312_0_1" index="1" speed="13.89" length="8.21" shape="3678.19,1176.90 3678.90,1179.20 3679.02,1180.89 3679.15,1182.58 3679.86,1184.89"/>
    </edge>
    <edge id=":130114008_0" function="internal">
        <lane id=":130114008_0_0" index="0" speed="6.42" length="9.04" shape="1819.79,1295.66 1817.63,1294.42 1815.61,1294.19 1813.75,1294.98 1812.03,1296.78"/>
    </edge>
    <edge id=":130114008_1" function="internal">
        <lane id=":130114008_1_0" index="0" speed="7.52" length="11.76" shape="1819.79,1295.66 1816.91,1292.99 1815.28,1290.47 1814.89,1288.08 1815.74,1285.83"/>
    </edge>
    <edge id=":130114008_2" function="internal">
        <lane id=":130114008_2_0" index="0" speed="8.33" length="11.16" shape="1818.39,1287.61 1812.03,1296.78"/>
    </edge>
    <edge id=":130114008_3" function="internal">
        <lane id=":130114008_3_0" index="0" speed="3.65" length="1.44" shape="1818.39,1287.61 1817.06,1288.16"/>
    </edge>
    <edge id=":130114008_6" function="internal">
        <lane id=":130114008_6_0" index="0" speed="3.65" length="3.23" shape="1817.06,1288.16 1816.17,1288.05 1815.73,1287.27 1815.74,1285.83"/>
    </edge>
    <edge id=":130114008_4" function="internal">
        <lane id=":130114008_4_0" index="0" speed="8.33" length="11.07" shape="1809.42,1294.92 1815.74,1285.83"/>
    </edge>
    <edge id=":130114008_5" function="internal">
        <lane id=":130114008_5_0" index="0" speed="3.65" length="1.44" shape="1809.42,1294.92 1810.77,1294.41"/>
    </edge>
    <edge id=":130114008_7" function="internal">
        <lane id=":130114008_7_0" index="0" speed="3.65" length="3.23" shape="1810.77,1294.41 1811.65,1294.55 1812.07,1295.34 1812.03,1296.78"/>
    </edge>
    <edge id=":150536177_0" function="internal">
        <lane id=":150536177_0_0" index="0" speed="3.95" length="2.05" shape="1914.66,1812.24 1914.15,1812.06 1913.67,1812.06 1913.21,1812.23 1912.79,1812.57"/>
    </edge>
    <edge id=":150536177_1" function="internal">
        <lane id=":150536177_1_0" index="0" speed="6.16" length="6.14" shape="1910.48,1810.36 1911.74,1809.34 1913.10,1808.83 1914.54,1808.84 1916.08,1809.37"/>
    </edge>
    <edge id=":1923966866_0" function="internal">
        <lane id=":1923966866_0_0" index="0" speed="5.56" length="3.03" width="4.75" shape="4238.47,2739.42 4237.86,2738.78 4237.31,2738.48 4236.75,2738.18 4236.12,2737.56"/>
    </edge>
    <edge id=":1923966866_1" function="internal">
        <lane id=":1923966866_1_0" index="0" speed="5.56" length="3.14" shape="4239.88,2734.66 4240.34,2735.45 4240.48,2736.09 4240.63,2736.73 4241.06,2737.54"/>
    </edge>
    <edge id=":1924114738_0" function="internal">
        <lane id=":1924114738_0_0" index="0" speed="4.17" length="12.56" width="5.50" shape="3660.48,3080.20 3656.25,3080.97 3652.85,3081.02 3650.29,3080.34 3648.57,3078.95"/>
    </edge>
    <edge id=":1924114738_1" function="internal">
        <lane id=":1924114738_1_0" index="0" speed="4.17" length="7.30" shape="3652.99,3075.67 3654.13,3076.73 3655.63,3077.32 3657.50,3077.44 3659.73,3077.09"/>
    </edge>
    <edge id=":2172694589_0" function="internal">
        <lane id=":2172694589_0_0" index="0" speed="13.89" length="7.89" shape="1992.09,1756.04 1988.02,1762.75"/>
        <lane id=":2172694589_0_1" index="1" speed="13.89" length="7.89" shape="1989.38,1754.34 1985.26,1761.12"/>
    </edge>
    <edge id=":2172694589_2" function="internal">
        <lane id=":2172694589_2_0" index="0" speed="13.89" length="8.45" shape="1982.50,1759.50 1983.34,1757.10 1983.19,1755.19 1983.07,1753.30 1983.97,1750.94"/>
        <lane id=":2172694589_2_1" index="1" speed="13.89" length="8.45" shape="1982.50,1759.50 1986.67,1752.64"/>
    </edge>
    <edge id=":2172694593_0" function="internal">
        <lane id=":2172694593_0_0" index="0" speed="6.51" length="8.91" shape="2940.59,1748.30 2942.57,1746.88 2943.63,1745.17 2943.78,1743.15 2943.01,1740.84"/>
    </edge>
    <edge id=":2172694593_1" function="internal">
        <lane id=":2172694593_1_0" index="0" speed="13.89" length="10.97" shape="2940.59,1748.30 2950.43,1743.45"/>
    </edge>
    <edge id=":27256990_0" function="internal">
        <lane id=":27256990_0_0" index="0" speed="13.89" length="12.53" shape="3459.43,1608.48 3457.98,1611.11 3457.96,1613.80 3458.17,1616.89 3457.40,1620.74"/>
        <lane id=":27256990_0_1" index="1" speed="13.89" length="12.53" shape="3459.43,1608.48 3457.51,1610.95 3456.45,1613.27 3455.63,1615.97 3454.41,1619.60"/>
    </edge>
    <edge id=":27256990_2" function="internal">
        <lane id=":27256990_2_0" index="0" speed="5.46" length="4.85" width="3.50" shape="3459.43,1608.48 3456.78,1610.81 3455.49,1611.10"/>
    </edge>
    <edge id=":27256990_4" function="internal">
        <lane id=":27256990_4_0" index="0" speed="5.46" length="5.67" width="3.50" shape="3455.49,1611.10 3455.06,1611.20 3454.26,1609.65 3454.39,1606.16"/>
    </edge>
    <edge id=":27256990_3" function="internal">
        <lane id=":27256990_3_0" index="0" speed="13.89" length="12.76" width="3.50" shape="3448.44,1617.32 3450.22,1613.78 3452.01,1611.39 3453.50,1609.17 3454.39,1606.16"/>
    </edge>
    <edge id=":279262777_0" function="internal">
        <lane id=":279262777_0_0" index="0" speed="6.62" length="9.16" shape="2902.52,2174.98 2901.06,2172.99 2899.29,2171.93 2897.20,2171.79 2894.79,2172.58"/>
    </edge>
    <edge id=":279262777_1" function="internal">
        <lane id=":279262777_1_0" index="0" speed="8.33" length="14.38" shape="2902.52,2174.98 2895.88,2162.22"/>
    </edge>
    <edge id=":279262777_2" function="internal">
        <lane id=":279262777_2_0" index="0" speed="8.33" length="14.32" shape="2901.58,2159.31 2908.18,2172.00"/>
        <lane id=":279262777_2_1" index="1" speed="8.33" length="14.32" shape="2898.73,2160.77 2905.35,2173.49"/>
    </edge>
    <edge id=":279262777_4" function="internal">
        <lane id=":279262777_4_0" index="0" speed="7.97" length="4.04" shape="2898.73,2160.77 2900.01,2164.47 2900.00,2164.59"/>
    </edge>
    <edge id=":279262777_7" function="internal">
        <lane id=":279262777_7_0" index="0" speed="7.97" length="10.23" shape="2900.00,2164.59 2899.77,2167.68 2898.04,2170.38 2894.79,2172.58"/>
    </edge>
    <edge id=":279262777_5" function="internal">
        <lane id=":279262777_5_0" index="0" speed="6.46" length="9.03" shape="2893.39,2169.70 2895.44,2168.31 2896.54,2166.60 2896.69,2164.57 2895.88,2162.22"/>
    </edge>
    <edge id=":279262777_6" function="internal">
        <lane id=":279262777_6_0" index="0" speed="8.10" length="14.21" shape="2893.39,2169.70 2897.11,2168.49 2900.34,2168.72 2903.09,2170.39 2905.35,2173.49"/>
    </edge>
    <edge id=":279262855_0" function="internal">
        <lane id=":279262855_0_0" index="0" speed="8.33" length="11.51" shape="2059.32,2627.83 2053.24,2618.06"/>
    </edge>
    <edge id=":279262855_1" function="internal">
        <lane id=":279262855_1_0" index="0" speed="3.65" length="4.67" shape="2059.32,2627.83 2059.32,2626.39 2059.77,2625.61 2060.65,2625.50 2061.98,2626.05"/>
    </edge>
    <edge id=":279262855_2" function="internal">
        <lane id=":279262855_2_0" index="0" speed="6.41" length="9.04" shape="2063.69,2618.40 2061.76,2619.98 2060.83,2621.78 2060.91,2623.80 2061.98,2626.05"/>
    </edge>
    <edge id=":279262855_3" function="internal">
        <lane id=":279262855_3_0" index="0" speed="7.30" length="11.80" shape="2063.69,2618.40 2060.19,2620.10 2057.28,2620.61 2054.96,2619.93 2053.24,2618.06"/>
    </edge>
    <edge id=":279262855_4" function="internal">
        <lane id=":279262855_4_0" index="0" speed="8.33" length="11.30" shape="2056.01,2616.46 2061.98,2626.05"/>
    </edge>
    <edge id=":279262855_5" function="internal">
        <lane id=":279262855_5_0" index="0" speed="3.65" length="4.67" shape="2056.01,2616.46 2055.92,2617.90 2055.43,2618.64 2054.54,2618.70 2053.24,2618.06"/>
    </edge>
    <edge id=":28137421_0" function="internal">
        <lane id=":28137421_0_0" index="0" speed="6.44" length="9.03" shape="1947.53,3008.20 1945.82,3006.39 1943.96,3005.58 1941.94,3005.77 1939.76,3006.97"/>
    </edge>
    <edge id=":28137421_1" function="internal">
        <lane id=":28137421_1_0" index="0" speed="6.59" length="9.10" shape="1941.06,2999.05 1942.19,3001.24 1942.34,3003.29 1941.54,3005.20 1939.76,3006.97"/>
    </edge>
    <edge id=":28137448_0" function="internal">
        <lane id=":28137448_0_0" index="0" speed="13.89" length="8.11" shape="2902.95,3230.45 2901.03,3229.01 2899.71,3228.02 2898.44,3226.97 2896.66,3225.35"/>
    </edge>
    <edge id=":28137448_1" function="internal">
        <lane id=":28137448_1_0" index="0" speed="13.89" length="7.78" shape="2898.85,3223.02 2900.56,3224.57 2901.78,3225.58 2903.04,3226.53 2904.89,3227.91"/>
    </edge>
    <edge id=":28137448_2" function="internal">
        <lane id=":28137448_2_0" index="0" speed="7.75" length="7.41" shape="2898.30,3232.26 2898.51,3230.11 2898.30,3228.23 2897.69,3226.65 2896.66,3225.35"/>
    </edge>
    <edge id=":28137450_0" function="internal">
        <lane id=":28137450_0_0" index="0" speed="5.56" length="8.70" shape="3120.73,2459.87 3118.61,2461.28 3117.37,2462.58 3116.15,2463.89 3114.06,2465.38"/>
    </edge>
    <edge id=":28137450_1" function="internal">
        <lane id=":28137450_1_0" index="0" speed="5.56" length="4.01" shape="3120.73,2459.87 3118.72,2460.55 3117.12,2460.24 3116.95,2460.06"/>
    </edge>
    <edge id=":28137450_4" function="internal">
        <lane id=":28137450_4_0" index="0" speed="5.56" length="3.95" shape="3116.95,2460.06 3115.93,2458.94 3115.14,2456.63"/>
    </edge>
    <edge id=":28137450_2" function="internal">
        <lane id=":28137450_2_0" index="0" speed="5.56" length="7.06" shape="3112.46,2462.61 3113.94,2461.48 3114.88,2460.11 3115.28,2458.49 3115.14,2456.63"/>
    </edge>
    <edge id=":28137450_3" function="internal">
        <lane id=":28137450_3_0" index="0" speed="3.65" length="1.34" shape="3112.46,2462.61 3113.80,2462.70"/>
    </edge>
    <edge id=":28137450_5" function="internal">
        <lane id=":28137450_5_0" index="0" speed="3.65" length="3.33" shape="3113.80,2462.70 3113.90,2462.70 3114.65,2463.20 3114.70,2464.09 3114.06,2465.38"/>
    </edge>
    <edge id=":28579863_0" function="internal">
        <lane id=":28579863_0_0" index="0" speed="6.08" length="7.44" shape="1731.11,2676.58 1730.33,2674.71 1730.31,2673.02 1731.06,2671.50 1732.56,2670.14"/>
    </edge>
    <edge id=":28579863_1" function="internal">
        <lane id=":28579863_1_0" index="0" speed="3.91" length="2.48" shape="1734.35,2672.80 1733.85,2673.25 1733.60,2673.76 1733.60,2674.32 1733.86,2674.95"/>
    </edge>
    <edge id=":28579863_2" function="internal">
        <lane id=":28579863_2_0" index="0" speed="3.65" length="4.67" shape="1734.35,2672.80 1732.91,2672.80 1732.13,2672.36 1732.01,2671.48 1732.56,2670.14"/>
    </edge>
    <edge id=":28582192_0" function="internal">
        <lane id=":28582192_0_0" index="0" speed="8.33" length="11.23" shape="3305.89,1974.57 3297.70,1966.87"/>
    </edge>
    <edge id=":28582192_1" function="internal">
        <lane id=":28582192_1_0" index="0" speed="6.41" length="9.04" shape="3305.53,1966.52 3303.64,1968.15 3301.71,1968.75 3299.73,1968.32 3297.70,1966.87"/>
    </edge>
    <edge id=":28582284_0" function="internal">
        <lane id=":28582284_0_0" index="0" speed="8.33" length="11.13" width="6.00" shape="3730.14,1808.18 3722.90,1816.65"/>
    </edge>
    <edge id=":28582284_1" function="internal">
        <lane id=":28582284_1_0" index="0" speed="6.76" length="10.23" width="6.00" shape="3720.92,1807.98 3723.17,1810.11 3724.26,1812.27 3724.17,1814.44 3722.90,1816.65"/>
    </edge>
    <edge id=":28583644_0" function="internal">
        <lane id=":28583644_0_0" index="0" speed="6.88" length="9.74" width="6.00" shape="3895.44,1706.95 3893.97,1704.39 3892.23,1702.81 3890.21,1702.22 3887.91,1702.61"/>
    </edge>
    <edge id=":28583644_1" function="internal">
        <lane id=":28583644_1_0" index="0" speed="13.89" length="13.95" shape="3895.44,1706.95 3894.12,1702.73 3893.58,1699.32 3892.82,1696.50 3890.83,1694.06"/>
    </edge>
    <edge id=":28583644_2" function="internal">
        <lane id=":28583644_2_0" index="0" speed="3.65" length="4.67" shape="3898.37,1705.68 3898.63,1704.26 3899.20,1703.57 3900.09,1703.62 3901.31,1704.40"/>
    </edge>
    <edge id=":28583644_3" function="internal">
        <lane id=":28583644_3_0" index="0" speed="13.89" length="16.49" shape="3900.30,1687.44 3899.94,1690.89 3900.60,1694.32 3902.09,1698.23 3904.24,1703.13"/>
    </edge>
    <edge id=":28583644_4" function="internal">
        <lane id=":28583644_4_0" index="0" speed="11.11" length="11.03" width="6.00" shape="3900.30,1687.44 3898.40,1692.80 3895.70,1697.11 3895.52,1697.29"/>
    </edge>
    <edge id=":28583644_5" function="internal">
        <lane id=":28583644_5_0" index="0" speed="7.13" length="11.24" shape="3900.30,1687.44 3898.59,1692.26 3896.43,1694.97 3893.85,1695.57"/>
    </edge>
    <edge id=":28583644_6" function="internal">
        <lane id=":28583644_6_0" index="0" speed="11.11" length="9.37" width="6.00" shape="3895.52,1697.29 3892.21,1700.38 3887.91,1702.61"/>
    </edge>
    <edge id=":28583644_7" function="internal">
        <lane id=":28583644_7_0" index="0" speed="7.13" length="3.38" shape="3893.85,1695.57 3890.83,1694.06"/>
    </edge>
    <edge id=":28584151_0" function="internal">
        <lane id=":28584151_0_0" index="0" speed="5.56" length="6.40" shape="3110.12,2351.92 3110.01,2350.59 3109.84,2348.59 3109.83,2346.68 3110.19,2345.59"/>
    </edge>
    <edge id=":28584151_1" function="internal">
        <lane id=":28584151_1_0" index="0" speed="3.65" length="0.54" shape="3112.02,2348.22 3111.48,2348.23"/>
    </edge>
    <edge id=":28584151_2" function="internal">
        <lane id=":28584151_2_0" index="0" speed="3.65" length="4.13" shape="3111.48,2348.23 3110.57,2348.24 3109.79,2347.81 3109.66,2346.93 3110.19,2345.59"/>
    </edge>
    <edge id=":28584172_0" function="internal">
        <lane id=":28584172_0_0" index="0" speed="13.89" length="10.64" shape="3144.93,1817.97 3137.34,1810.50"/>
    </edge>
    <edge id=":28584172_1" function="internal">
        <lane id=":28584172_1_0" index="0" speed="6.59" length="8.75" shape="3144.93,1817.97 3143.53,1816.11 3143.03,1814.19 3143.43,1812.21 3144.74,1810.17"/>
    </edge>
    <edge id=":28584189_0" function="internal">
        <lane id=":28584189_0_0" index="0" speed="6.55" length="7.79" shape="3274.71,1658.52 3273.76,1660.38 3273.54,1662.18 3274.05,1663.92 3275.28,1665.60"/>
    </edge>
    <edge id=":28584189_1" function="internal">
        <lane id=":28584189_1_0" index="0" speed="3.65" length="1.44" shape="3274.71,1658.52 3273.37,1659.05"/>
    </edge>
    <edge id=":28584189_4" function="internal">
        <lane id=":28584189_4_0" index="0" speed="3.65" length="3.23" shape="3273.37,1659.05 3272.48,1658.92 3272.06,1658.14 3272.08,1656.70"/>
    </edge>
    <edge id=":28584189_2" function="internal">
        <lane id=":28584189_2_0" index="0" speed="13.89" length="9.42" shape="3267.70,1664.97 3269.28,1662.71 3270.02,1660.94 3270.70,1659.11 3272.08,1656.70"/>
    </edge>
    <edge id=":28584189_3" function="internal">
        <lane id=":28584189_3_0" index="0" speed="6.24" length="4.88" shape="3267.70,1664.97 3269.39,1663.57 3271.22,1663.20 3271.99,1663.47"/>
    </edge>
    <edge id=":28584189_5" function="internal">
        <lane id=":28584189_5_0" index="0" speed="6.24" length="3.97" shape="3271.99,1663.47 3273.19,1663.88 3275.28,1665.60"/>
    </edge>
    <edge id=":28587330_0" function="internal">
        <lane id=":28587330_0_0" index="0" speed="13.89" length="9.80" shape="3213.41,2172.53 3205.72,2166.45"/>
    </edge>
    <edge id=":28587330_1" function="internal">
        <lane id=":28587330_1_0" index="0" speed="6.71" length="2.50" shape="3213.41,2172.53 3211.82,2170.60"/>
    </edge>
    <edge id=":28587330_4" function="internal">
        <lane id=":28587330_4_0" index="0" speed="6.71" length="8.52" shape="3211.82,2170.60 3211.60,2168.42 3212.75,2166.01 3215.26,2163.35"/>
    </edge>
    <edge id=":28587330_2" function="internal">
        <lane id=":28587330_2_0" index="0" speed="6.74" length="8.34" shape="3207.69,2163.93 3209.53,2164.96 3211.40,2165.20 3213.31,2164.67 3215.26,2163.35"/>
    </edge>
    <edge id=":28587330_3" function="internal">
        <lane id=":28587330_3_0" index="0" speed="13.89" length="9.84" shape="3207.69,2163.93 3215.41,2170.03"/>
    </edge>
    <edge id=":2884057343_0" function="internal">
        <lane id=":2884057343_0_0" index="0" speed="13.89" length="8.36" shape="2243.76,1470.62 2242.37,1472.68 2242.06,1474.54 2241.76,1476.40 2240.40,1478.49"/>
        <lane id=":2884057343_0_1" index="1" speed="13.89" length="8.36" shape="2243.76,1470.62 2238.12,1476.25"/>
    </edge>
    <edge id=":2884057343_2" function="internal">
        <lane id=":2884057343_2_0" index="0" speed="13.89" length="8.03" shape="2235.84,1474.00 2241.52,1468.33"/>
    </edge>
    <edge id=":28851231_0" function="internal">
        <lane id=":28851231_0_0" index="0" speed="8.25" length="8.95" shape="3528.36,1303.57 3527.92,1301.49 3526.91,1299.67 3525.34,1298.09 3523.20,1296.77"/>
    </edge>
    <edge id=":28851231_1" function="internal">
        <lane id=":28851231_1_0" index="0" speed="13.08" length="12.33" shape="3528.36,1303.57 3528.34,1300.24 3528.87,1297.48 3530.00,1294.87 3531.76,1292.02"/>
    </edge>
    <edge id=":28851231_2" function="internal">
        <lane id=":28851231_2_0" index="0" speed="3.65" length="1.44" shape="3528.36,1303.57 3529.07,1302.31"/>
    </edge>
    <edge id=":28851231_9" function="internal">
        <lane id=":28851231_9_0" index="0" speed="3.65" length="3.23" shape="3529.07,1302.31 3529.84,1301.85 3530.67,1302.19 3531.56,1303.33"/>
    </edge>
    <edge id=":28851231_3" function="internal">
        <lane id=":28851231_3_0" index="0" speed="11.97" length="10.27" shape="3534.41,1293.81 3532.74,1296.34 3531.80,1298.25 3531.45,1300.33 3531.56,1303.33"/>
    </edge>
    <edge id=":28851231_4" function="internal">
        <lane id=":28851231_4_0" index="0" speed="8.04" length="3.47" shape="3534.41,1293.81 3532.10,1296.39"/>
    </edge>
    <edge id=":28851231_5" function="internal">
        <lane id=":28851231_5_0" index="0" speed="3.65" length="1.44" shape="3534.41,1293.81 3533.08,1294.36"/>
    </edge>
    <edge id=":28851231_10" function="internal">
        <lane id=":28851231_10_0" index="0" speed="8.04" length="9.40" shape="3532.10,1296.39 3529.45,1297.74 3526.49,1297.87 3523.20,1296.77"/>
    </edge>
    <edge id=":28851231_11" function="internal">
        <lane id=":28851231_11_0" index="0" speed="3.65" length="3.23" shape="3533.08,1294.36 3532.19,1294.24 3531.75,1293.46 3531.76,1292.02"/>
    </edge>
    <edge id=":28851231_6" function="internal">
        <lane id=":28851231_6_0" index="0" speed="6.53" length="8.19" shape="3524.63,1293.90 3526.72,1294.60 3528.60,1294.52 3530.29,1293.66 3531.76,1292.02"/>
    </edge>
    <edge id=":28851231_7" function="internal">
        <lane id=":28851231_7_0" index="0" speed="9.58" length="12.26" shape="3524.63,1293.90 3527.48,1295.69 3529.59,1297.86 3530.95,1300.41 3531.56,1303.33"/>
    </edge>
    <edge id=":28851231_8" function="internal">
        <lane id=":28851231_8_0" index="0" speed="3.65" length="4.67" shape="3524.63,1293.90 3525.34,1295.15 3525.35,1296.05 3524.63,1296.59 3523.20,1296.77"/>
    </edge>
    <edge id=":292266876_0" function="internal">
        <lane id=":292266876_0_0" index="0" speed="8.33" length="14.45" shape="3030.69,3111.62 3019.25,3120.46"/>
    </edge>
    <edge id=":292266876_1" function="internal">
        <lane id=":292266876_1_0" index="0" speed="8.26" length="3.97" shape="3030.69,3111.62 3027.39,3113.48 3027.20,3113.50"/>
    </edge>
    <edge id=":292266876_7" function="internal">
        <lane id=":292266876_7_0" index="0" speed="8.26" length="10.35" shape="3027.20,3113.50 3024.18,3113.86 3021.05,3112.75 3018.00,3110.17"/>
    </edge>
    <edge id=":292266876_2" function="internal">
        <lane id=":292266876_2_0" index="0" speed="6.81" length="9.44" shape="3020.38,3108.03 3022.40,3109.76 3024.47,3110.51 3026.57,3110.29 3028.72,3109.10"/>
    </edge>
    <edge id=":292266876_3" function="internal">
        <lane id=":292266876_3_0" index="0" speed="7.86" length="14.51" shape="3020.38,3108.03 3022.62,3111.36 3023.18,3114.55 3022.06,3117.58 3019.25,3120.46"/>
    </edge>
    <edge id=":292266876_4" function="internal">
        <lane id=":292266876_4_0" index="0" speed="3.65" length="4.67" shape="3020.38,3108.03 3020.59,3109.45 3020.26,3110.29 3019.40,3110.53 3018.00,3110.17"/>
    </edge>
    <edge id=":292266876_5" function="internal">
        <lane id=":292266876_5_0" index="0" speed="6.34" length="9.04" shape="3017.30,3117.92 3019.05,3116.12 3019.75,3114.24 3019.40,3112.25 3018.00,3110.17"/>
    </edge>
    <edge id=":292266876_6" function="internal">
        <lane id=":292266876_6_0" index="0" speed="8.33" length="14.43" shape="3017.30,3117.92 3028.72,3109.10"/>
    </edge>
    <edge id=":292272906_0" function="internal">
        <lane id=":292272906_0_0" index="0" speed="8.33" length="14.52" shape="2824.91,2856.12 2813.49,2865.10"/>
    </edge>
    <edge id=":292272906_1" function="internal">
        <lane id=":292272906_1_0" index="0" speed="7.84" length="14.57" shape="2824.91,2856.12 2821.42,2858.18 2818.21,2858.54 2815.26,2857.20 2812.58,2854.16"/>
    </edge>
    <edge id=":292272906_2" function="internal">
        <lane id=":292272906_2_0" index="0" speed="6.31" length="9.04" shape="2815.25,2852.41 2816.92,2854.29 2818.75,2855.12 2820.74,2854.90 2822.91,2853.62"/>
    </edge>
    <edge id=":292272906_3" function="internal">
        <lane id=":292272906_3_0" index="0" speed="8.28" length="14.37" shape="2815.25,2852.41 2817.00,2856.03 2817.28,2859.35 2816.12,2862.37 2813.49,2865.10"/>
    </edge>
    <edge id=":292272906_4" function="internal">
        <lane id=":292272906_4_0" index="0" speed="6.83" length="9.49" shape="2811.54,2862.56 2813.24,2860.78 2813.97,2858.79 2813.75,2856.58 2812.58,2854.16"/>
    </edge>
    <edge id=":292272906_5" function="internal">
        <lane id=":292272906_5_0" index="0" speed="8.33" length="14.46" shape="2811.54,2862.56 2822.91,2853.62"/>
    </edge>
    <edge id=":292279060_0" function="internal">