<?xml version="1.0" encoding="UTF-8"?>

<!-- generated on 2025-09-11 01:12:30 by Eclipse SUMO netedit Version 1.24.0
<neteditConfiguration xmlns:xsi="http://www.w3.org/2001/XMLSchema-instance" xsi:noNamespaceSchemaLocation="http://sumo.dlr.de/xsd/neteditConfiguration.xsd">

    <input>
        <sumocfg-file value=".\zurich.sumocfg"/>
        <additional-files value=".\detector.add.xml"/>
        <sumo-net-file value=".\zurich.net.xml"/>
    </input>

    <output>
        <output-file value=".\zurich.net.xml"/>
    </output>

    <processing>
        <geometry.min-radius.fix.railways value="false"/>
        <geometry.avoid-overlap value="false"/>
        <geometry.max-grade.fix value="false"/>
        <offset.disable-normalization value="true"/>
        <lefthand value="0"/>
    </processing>

    <junctions>
        <no-turnarounds value="true"/>
        <junctions.corner-detail value="5"/>
        <junctions.limit-turn-speed value="5.50"/>
        <rectangular-lane-cut value="0"/>
    </junctions>

    <pedestrian>
        <walkingareas value="0"/>
    </pedestrian>

    <netedit>
        <ignore.routeelements value="false"/>
    </netedit>

</neteditConfiguration>
-->

<net version="1.20" junctionCornerDetail="5" limitTurnSpeed="5.50" avoidOverlap="0" xmlns:xsi="http://www.w3.org/2001/XMLSchema-instance" xsi:noNamespaceSchemaLocation="http://sumo.dlr.de/xsd/net_file.xsd">

    <location netOffset="-462716.54,-5245963.27" convBoundary="767.32,412.73,2240.04,1702.72" origBoundary="8.506179,47.352939,8.541221,47.385562" projParameter="+proj=utm +zone=32 +ellps=WGS84 +datum=WGS84 +units=m +no_defs"/>

    <type id="highway.living_street" priority="2" numLanes="1" speed="2.78"  oneway="0"/>
    <type id="highway.primary" priority="12" numLanes="2" speed="27.78"  oneway="0"/>
    <type id="highway.residential" priority="3" numLanes="1" speed="13.89"  oneway="0"/>
    <type id="highway.tertiary" priority="10" numLanes="1" speed="22.22"  oneway="0"/>

    <edge id=":10269914582_0" function="internal">
        <lane id=":10269914582_0_0" index="0"  speed="13.89" length="0.30" width="3.00" shape="1739.27,789.43 1739.19,789.71"/>
    </edge>
    <edge id=":10703137775_0" function="internal">
        <lane id=":10703137775_0_0" index="0"  speed="13.89" length="8.16" width="7.75" shape="1816.11,1468.23 1814.28,1469.82 1813.21,1471.11 1812.09,1472.36 1810.17,1473.78"/>
    </edge>
    <edge id=":10703137775_1" function="internal">
        <lane id=":10703137775_1_0" index="0"  speed="13.89" length="8.09" width="5.17" shape="1806.11,1467.18 1807.73,1465.48 1808.12,1463.65 1808.47,1461.77 1809.98,1459.90"/>
        <lane id=":10703137775_1_1" index="1"  speed="13.89" length="8.09" width="5.17" shape="1806.11,1467.18 1808.13,1466.17 1809.64,1465.72 1811.12,1465.23 1813.04,1464.07"/>
    </edge>
    <edge id=":10703137779_0" function="internal">
        <lane id=":10703137779_0_0" index="0"  speed="13.89" length="8.69" width="5.17" shape="1923.99,1382.09 1922.48,1384.21 1922.19,1386.22 1921.89,1388.21 1920.34,1390.28"/>
        <lane id=":10703137779_0_1" index="1"  speed="13.89" length="8.69" width="5.17" shape="1923.99,1382.09 1922.05,1383.51 1920.55,1384.23 1919.02,1384.92 1917.05,1386.29"/>
    </edge>
    <edge id=":10703137779_2" function="internal">
        <lane id=":10703137779_2_0" index="0"  speed="13.89" length="7.95" width="7.75" shape="1913.76,1382.31 1915.43,1380.67 1916.34,1379.32 1917.25,1377.95 1918.87,1376.26"/>
    </edge>
    <edge id=":107204550_0" function="internal">
        <lane id=":107204550_0_0" index="0"  speed="8.33" length="0.75" shape="1250.83,673.71 1250.58,673.59 1250.41,673.51 1250.25,673.41 1250.01,673.26"/>
        <lane id=":107204550_0_1" index="1"  speed="8.33" length="0.75" shape="1252.20,670.82 1252.05,670.75 1251.95,670.69 1251.85,670.64 1251.70,670.55"/>
    </edge>
    <edge id=":107204550_2" function="internal">
        <lane id=":107204550_2_0" index="0"  speed="8.33" length="0.19" shape="1253.40,667.83 1253.44,667.86 1253.48,667.88 1253.51,667.90 1253.56,667.92"/>
    </edge>
    <edge id=":10876277432_0" function="internal">
        <lane id=":10876277432_0_0" index="0"  speed="13.89" length="8.40" shape="1085.15,870.62 1082.81,869.71 1080.93,869.80 1079.04,869.89 1076.70,868.98"/>
        <lane id=":10876277432_0_1" index="1"  speed="13.89" length="8.40" shape="1085.15,870.62 1078.43,866.29"/>
    </edge>
    <edge id=":10876277432_2" function="internal">
        <lane id=":10876277432_2_0" index="0"  speed="13.89" length="8.00" shape="1080.17,863.60 1086.89,867.93"/>
    </edge>
    <edge id=":10877414544_0" function="internal">
        <lane id=":10877414544_0_0" index="0"  speed="13.89" length="8.23" width="7.75" shape="1951.82,1355.75 1950.20,1357.56 1949.30,1358.99 1948.38,1360.40 1946.70,1362.15"/>
    </edge>
    <edge id=":10877414544_1" function="internal">
        <lane id=":10877414544_1_0" index="0"  speed="13.89" length="8.49" width="5.17" shape="1941.59,1356.33 1943.01,1354.27 1943.20,1352.32 1943.36,1350.34 1944.73,1348.22"/>
        <lane id=":10877414544_1_1" index="1"  speed="13.89" length="8.49" width="5.17" shape="1941.59,1356.33 1943.49,1354.92 1944.97,1354.20 1946.43,1353.45 1948.28,1351.99"/>
    </edge>
    <edge id=":10877414545_0" function="internal">
        <lane id=":10877414545_0_0" index="0"  speed="13.89" length="8.08" width="7.75" shape="2021.46,1289.53 2019.86,1291.28 2018.99,1292.70 2018.13,1294.11 2016.54,1295.89"/>
    </edge>
    <edge id=":10877414545_1" function="internal">
        <lane id=":10877414545_1_0" index="0"  speed="13.89" length="8.68" width="5.17" shape="2011.22,1290.26 2012.63,1288.09 2012.82,1286.08 2013.01,1284.08 2014.45,1281.93"/>
        <lane id=":10877414545_1_1" index="1"  speed="13.89" length="8.68" width="5.17" shape="2011.22,1290.26 2013.09,1288.76 2014.57,1287.98 2016.06,1287.21 2017.95,1285.73"/>
    </edge>
    <edge id=":10891548846_0" function="internal">
        <lane id=":10891548846_0_0" index="0"  speed="6.95" length="6.77" shape="1621.37,1201.09 1619.41,1201.54 1618.07,1201.85 1616.75,1202.24 1614.86,1202.92"/>
    </edge>
    <edge id=":10891548846_1" function="internal">
        <lane id=":10891548846_1_0" index="0"  speed="6.95" length="2.09" shape="1618.61,1197.90 1617.75,1199.80"/>
    </edge>
    <edge id=":10891548846_2" function="internal">
        <lane id=":10891548846_2_0" index="0"  speed="6.95" length="4.32" shape="1617.75,1199.80 1616.83,1201.27 1615.87,1202.31 1614.86,1202.92"/>
    </edge>
    <edge id=":1233603796_0" function="internal">
        <lane id=":1233603796_0_0" index="0"  speed="11.11" length="2.61" shape="1632.27,1565.77 1631.58,1566.11 1631.11,1566.35 1630.65,1566.61 1629.98,1567.01"/>
    </edge>
    <edge id=":12641024991_0" function="internal">
        <lane id=":12641024991_0_0" index="0"  speed="8.33" length="7.95" shape="1171.18,1305.01 1164.20,1308.82"/>
    </edge>
    <edge id=":12641024991_1" function="internal">
        <lane id=":12641024991_1_0" index="0"  speed="8.33" length="8.41" shape="1162.64,1306.03 1164.56,1304.39 1165.38,1302.68 1166.21,1300.98 1168.15,1299.37"/>
        <lane id=":12641024991_1_1" index="1"  speed="8.33" length="8.41" shape="1162.64,1306.03 1169.66,1302.19"/>
    </edge>
    <edge id=":12660010312_0" function="internal">
        <lane id=":12660010312_0_0" index="0"  speed="13.89" length="8.21" shape="1838.31,586.61 1839.48,588.72 1840.62,589.98 1841.75,591.23 1842.92,593.34"/>
        <lane id=":12660010312_0_1" index="1"  speed="13.89" length="8.21" shape="1838.31,586.61 1839.02,588.91 1839.14,590.60 1839.27,592.29 1839.98,594.60"/>
    </edge>
    <edge id=":130114008_0" function="internal">
        <lane id=":130114008_0_0" index="0"  speed="6.42" length="9.04" shape="912.76,650.07 910.60,648.83 908.58,648.60 906.72,649.39 905.00,651.19"/>
    </edge>
    <edge id=":130114008_1" function="internal">
        <lane id=":130114008_1_0" index="0"  speed="7.52" length="11.76" shape="912.76,650.07 909.88,647.40 908.25,644.88 907.86,642.49 908.71,640.24"/>
    </edge>
    <edge id=":130114008_2" function="internal">
        <lane id=":130114008_2_0" index="0"  speed="8.33" length="11.16" shape="911.36,642.02 905.00,651.19"/>
    </edge>
    <edge id=":130114008_3" function="internal">
        <lane id=":130114008_3_0" index="0"  speed="3.65" length="1.44" shape="911.36,642.02 910.03,642.57"/>
    </edge>
    <edge id=":130114008_6" function="internal">
        <lane id=":130114008_6_0" index="0"  speed="3.65" length="3.23" shape="910.03,642.57 909.14,642.46 908.70,641.68 908.71,640.24"/>
    </edge>
    <edge id=":130114008_4" function="internal">
        <lane id=":130114008_4_0" index="0"  speed="8.33" length="11.07" shape="902.39,649.33 908.71,640.24"/>
    </edge>
    <edge id=":130114008_5" function="internal">
        <lane id=":130114008_5_0" index="0"  speed="3.65" length="1.44" shape="902.39,649.33 903.74,648.82"/>
    </edge>
    <edge id=":130114008_7" function="internal">
        <lane id=":130114008_7_0" index="0"  speed="3.65" length="3.23" shape="903.74,648.82 904.62,648.96 905.04,649.75 905.00,651.19"/>
    </edge>
    <edge id=":150536177_0" function="internal">
        <lane id=":150536177_0_0" index="0"  speed="3.95" length="2.05" shape="958.03,907.36 957.52,907.18 957.04,907.18 956.58,907.35 956.16,907.69"/>
    </edge>
    <edge id=":150536177_1" function="internal">
        <lane id=":150536177_1_0" index="0"  speed="6.16" length="6.14" shape="953.85,905.48 955.11,904.46 956.47,903.95 957.91,903.96 959.45,904.49"/>
    </edge>
    <edge id=":1923966866_0" function="internal">
        <lane id=":1923966866_0_0" index="0"  speed="5.56" length="3.03" width="4.75" shape="2119.02,1370.78 2118.41,1370.14 2117.86,1369.84 2117.30,1369.54 2116.67,1368.92"/>
    </edge>
    <edge id=":1923966866_1" function="internal">
        <lane id=":1923966866_1_0" index="0"  speed="5.56" length="3.14" shape="2120.43,1366.02 2120.89,1366.81 2121.03,1367.45 2121.18,1368.09 2121.61,1368.90"/>
    </edge>
    <edge id=":1924114738_0" function="internal">
        <lane id=":1924114738_0_0" index="0"  speed="4.17" length="13.29" width="5.50" shape="1833.65,1539.39 1830.26,1541.39 1827.20,1541.95 1824.45,1541.07 1822.03,1538.75"/>
    </edge>
    <edge id=":1924114738_1" function="internal">
        <lane id=":1924114738_1_0" index="0"  speed="4.17" length="7.26" shape="1826.45,1535.47 1827.81,1536.80 1829.31,1537.34 1830.97,1537.08 1832.78,1536.03"/>
    </edge>
    <edge id=":2172694589_0" function="internal">
        <lane id=":2172694589_0_0" index="0"  speed="13.89" length="7.89" shape="999.14,877.60 995.07,884.31"/>
        <lane id=":2172694589_0_1" index="1"  speed="13.89" length="7.89" shape="996.43,875.90 992.31,882.68"/>
    </edge>
    <edge id=":2172694589_2" function="internal">
        <lane id=":2172694589_2_0" index="0"  speed="13.89" length="8.45" shape="989.55,881.06 990.39,878.66 990.24,876.75 990.12,874.86 991.02,872.50"/>
        <lane id=":2172694589_2_1" index="1"  speed="13.89" length="8.45" shape="989.55,881.06 993.72,874.20"/>
    </edge>
    <edge id=":2172694593_0" function="internal">
        <lane id=":2172694593_0_0" index="0"  speed="6.51" length="8.91" shape="1467.86,875.42 1469.84,874.00 1470.90,872.29 1471.05,870.27 1470.28,867.96"/>
    </edge>
    <edge id=":2172694593_1" function="internal">
        <lane id=":2172694593_1_0" index="0"  speed="13.89" length="10.97" shape="1467.86,875.42 1477.70,870.57"/>
    </edge>
    <edge id=":27256990_0" function="internal">
        <lane id=":27256990_0_0" index="0"  speed="13.89" length="12.53" shape="1731.80,802.03 1730.35,804.66 1730.33,807.35 1730.54,810.44 1729.77,814.29"/>
        <lane id=":27256990_0_1" index="1"  speed="13.89" length="12.53" shape="1731.80,802.03 1729.88,804.50 1728.82,806.82 1728.00,809.52 1726.78,813.15"/>
    </edge>
    <edge id=":27256990_2" function="internal">
        <lane id=":27256990_2_0" index="0"  speed="5.46" length="4.85" width="3.50" shape="1731.80,802.03 1729.15,804.36 1727.86,804.65"/>
    </edge>
    <edge id=":27256990_4" function="internal">
        <lane id=":27256990_4_0" index="0"  speed="5.46" length="5.67" width="3.50" shape="1727.86,804.65 1727.43,804.75 1726.63,803.20 1726.76,799.71"/>
    </edge>
    <edge id=":27256990_3" function="internal">
        <lane id=":27256990_3_0" index="0"  speed="13.89" length="12.76" width="3.50" shape="1720.81,810.87 1722.59,807.33 1724.38,804.94 1725.87,802.72 1726.76,799.71"/>
    </edge>
    <edge id=":279262777_0" function="internal">
        <lane id=":279262777_0_0" index="0"  speed="6.62" length="9.16" shape="1452.21,1091.00 1450.75,1089.01 1448.98,1087.95 1446.89,1087.81 1444.48,1088.60"/>
    </edge>
    <edge id=":279262777_1" function="internal">
        <lane id=":279262777_1_0" index="0"  speed="8.33" length="14.38" shape="1452.21,1091.00 1445.57,1078.24"/>
    </edge>
    <edge id=":279262777_2" function="internal">
        <lane id=":279262777_2_0" index="0"  speed="8.33" length="14.32" shape="1451.27,1075.33 1457.87,1088.02"/>
        <lane id=":279262777_2_1" index="1"  speed="8.33" length="14.32" shape="1448.42,1076.79 1455.04,1089.51"/>
    </edge>
    <edge id=":279262777_4" function="internal">
        <lane id=":279262777_4_0" index="0"  speed="7.97" length="4.04" shape="1448.42,1076.79 1449.70,1080.49 1449.69,1080.61"/>
    </edge>
    <edge id=":279262777_7" function="internal">
        <lane id=":279262777_7_0" index="0"  speed="7.97" length="10.23" shape="1449.69,1080.61 1449.46,1083.70 1447.73,1086.40 1444.48,1088.60"/>
    </edge>
    <edge id=":279262777_5" function="internal">
        <lane id=":279262777_5_0" index="0"  speed="6.46" length="9.03" shape="1443.08,1085.72 1445.13,1084.33 1446.23,1082.62 1446.38,1080.59 1445.57,1078.24"/>
    </edge>
    <edge id=":279262777_6" function="internal">
        <lane id=":279262777_6_0" index="0"  speed="8.10" length="14.21" shape="1443.08,1085.72 1446.80,1084.51 1450.03,1084.74 1452.78,1086.41 1455.04,1089.51"/>
    </edge>
    <edge id=":279262855_0" function="internal">
        <lane id=":279262855_0_0" index="0"  speed="8.33" length="11.51" shape="1030.59,1316.75 1024.51,1306.98"/>
    </edge>
    <edge id=":279262855_1" function="internal">
        <lane id=":279262855_1_0" index="0"  speed="3.65" length="4.67" shape="1030.59,1316.75 1030.59,1315.31 1031.04,1314.53 1031.92,1314.42 1033.25,1314.97"/>
    </edge>
    <edge id=":279262855_2" function="internal">
        <lane id=":279262855_2_0" index="0"  speed="6.41" length="9.04" shape="1034.96,1307.32 1033.03,1308.90 1032.10,1310.70 1032.18,1312.72 1033.25,1314.97"/>
    </edge>
    <edge id=":279262855_3" function="internal">
        <lane id=":279262855_3_0" index="0"  speed="7.30" length="11.80" shape="1034.96,1307.32 1031.46,1309.02 1028.55,1309.53 1026.23,1308.85 1024.51,1306.98"/>
    </edge>
    <edge id=":279262855_4" function="internal">
        <lane id=":279262855_4_0" index="0"  speed="8.33" length="11.30" shape="1027.28,1305.38 1033.25,1314.97"/>
    </edge>
    <edge id=":279262855_5" function="internal">
        <lane id=":279262855_5_0" index="0"  speed="3.65" length="4.67" shape="1027.28,1305.38 1027.19,1306.82 1026.70,1307.56 1025.81,1307.62 1024.51,1306.98"/>
    </edge>
    <edge id=":28137421_0" function="internal">
        <lane id=":28137421_0_0" index="0"  speed="6.44" length="9.03" shape="975.39,1506.41 973.68,1504.60 971.82,1503.79 969.80,1503.98 967.62,1505.18"/>
    </edge>
    <edge id=":28137421_1" function="internal">
        <lane id=":28137421_1_0" index="0"  speed="6.59" length="9.10" shape="968.92,1497.26 970.05,1499.45 970.20,1501.50 969.40,1503.41 967.62,1505.18"/>
    </edge>
    <edge id=":28137448_0" function="internal">
        <lane id=":28137448_0_0" index="0"  speed="13.89" length="8.12" shape="1453.33,1617.39 1451.26,1616.18 1449.92,1615.22 1448.68,1614.12 1446.93,1612.46"/>
    </edge>
    <edge id=":28137448_1" function="internal">
        <lane id=":28137448_1_0" index="0"  speed="13.89" length="7.79" shape="1449.12,1610.13 1450.80,1611.71 1452.00,1612.76 1453.30,1613.66 1455.29,1614.82"/>
    </edge>
    <edge id=":28137448_2" function="internal">
        <lane id=":28137448_2_0" index="0"  speed="11.11" length="7.47" shape="1449.26,1619.34 1448.85,1617.14 1448.72,1615.52 1448.27,1614.09 1446.93,1612.46"/>
    </edge>
    <edge id=":28137450_0" function="internal">
        <lane id=":28137450_0_0" index="0"  speed="5.56" length="8.70" shape="1562.58,1228.75 1560.46,1230.16 1559.22,1231.46 1558.00,1232.77 1555.91,1234.26"/>
    </edge>
    <edge id=":28137450_1" function="internal">
        <lane id=":28137450_1_0" index="0"  speed="5.56" length="4.01" shape="1562.58,1228.75 1560.57,1229.43 1558.97,1229.12 1558.80,1228.94"/>
    </edge>
    <edge id=":28137450_4" function="internal">
        <lane id=":28137450_4_0" index="0"  speed="5.56" length="3.95" shape="1558.80,1228.94 1557.78,1227.82 1556.99,1225.51"/>
    </edge>
    <edge id=":28137450_2" function="internal">
        <lane id=":28137450_2_0" index="0"  speed="5.56" length="7.06" shape="1554.31,1231.49 1555.79,1230.36 1556.73,1228.99 1557.13,1227.37 1556.99,1225.51"/>
    </edge>
    <edge id=":28137450_3" function="internal">
        <lane id=":28137450_3_0" index="0"  speed="3.65" length="1.34" shape="1554.31,1231.49 1555.65,1231.58"/>
    </edge>
    <edge id=":28137450_5" function="internal">
        <lane id=":28137450_5_0" index="0"  speed="3.65" length="3.33" shape="1555.65,1231.58 1555.75,1231.58 1556.50,1232.08 1556.55,1232.97 1555.91,1234.26"/>
    </edge>
    <edge id=":28579863_0" function="internal">
        <lane id=":28579863_0_0" index="0"  speed="6.08" length="7.44" shape="865.64,1340.00 864.86,1338.13 864.84,1336.44 865.59,1334.92 867.09,1333.56"/>
    </edge>
    <edge id=":28579863_1" function="internal">
        <lane id=":28579863_1_0" index="0"  speed="3.91" length="2.48" shape="868.88,1336.22 868.38,1336.67 868.13,1337.18 868.13,1337.74 868.39,1338.37"/>
    </edge>
    <edge id=":28579863_2" function="internal">
        <lane id=":28579863_2_0" index="0"  speed="3.65" length="4.67" shape="868.88,1336.22 867.44,1336.22 866.66,1335.78 866.54,1334.90 867.09,1333.56"/>
    </edge>
    <edge id=":28582192_0" function="internal">
        <lane id=":28582192_0_0" index="0"  speed="8.33" length="11.23" shape="1654.99,989.17 1646.80,981.47"/>
    </edge>
    <edge id=":28582192_1" function="internal">
        <lane id=":28582192_1_0" index="0"  speed="6.41" length="9.04" shape="1654.63,981.12 1652.74,982.75 1650.81,983.35 1648.83,982.92 1646.80,981.47"/>
    </edge>
    <edge id=":28582284_0" function="internal">
        <lane id=":28582284_0_0" index="0"  speed="8.33" length="11.13" width="6.00" shape="1866.84,902.07 1859.60,910.54"/>
    </edge>
    <edge id=":28582284_1" function="internal">
        <lane id=":28582284_1_0" index="0"  speed="6.76" length="10.23" width="6.00" shape="1857.62,901.87 1859.87,904.00 1860.96,906.16 1860.87,908.33 1859.60,910.54"/>
    </edge>
    <edge id=":28583644_0" function="internal">
        <lane id=":28583644_0_0" index="0"  speed="6.88" length="9.74" width="6.00" shape="1946.79,857.35 1945.32,854.79 1943.58,853.21 1941.56,852.62 1939.26,853.01"/>
    </edge>
    <edge id=":28583644_1" function="internal">
        <lane id=":28583644_1_0" index="0"  speed="13.89" length="13.88" shape="1946.79,857.35 1945.40,853.18 1944.77,849.88 1944.01,847.07 1942.24,844.39"/>
    </edge>
    <edge id=":28583644_2" function="internal">
        <lane id=":28583644_2_0" index="0"  speed="3.65" length="4.67" shape="1949.72,856.08 1949.98,854.66 1950.55,853.97 1951.44,854.02 1952.66,854.80"/>
    </edge>
    <edge id=":28583644_3" function="internal">
        <lane id=":28583644_3_0" index="0"  speed="13.89" length="17.91" shape="1949.15,836.82 1955.59,853.53"/>
    </edge>
    <edge id=":28583644_4" function="internal">
        <lane id=":28583644_4_0" index="0"  speed="9.60" length="12.32" width="6.00" shape="1949.15,836.82 1950.28,841.92 1949.01,846.32 1947.24,848.10"/>
    </edge>
    <edge id=":28583644_5" function="internal">
        <lane id=":28583644_5_0" index="0"  speed="5.92" length="10.61" shape="1949.15,836.82 1949.56,840.80 1947.99,844.13 1945.46,845.60"/>
    </edge>
    <edge id=":28583644_6" function="internal">
        <lane id=":28583644_6_0" index="0"  speed="9.60" length="9.46" width="6.00" shape="1947.24,848.10 1945.34,850.01 1939.26,853.01"/>
    </edge>
    <edge id=":28583644_7" function="internal">
        <lane id=":28583644_7_0" index="0"  speed="5.92" length="3.51" shape="1945.46,845.60 1945.28,845.70 1942.24,844.39"/>
    </edge>
    <edge id=":28584151_0" function="internal">
        <lane id=":28584151_0_0" index="0"  speed="5.56" length="6.40" shape="1555.10,1178.10 1554.99,1176.77 1554.82,1174.77 1554.81,1172.86 1555.17,1171.77"/>
    </edge>
    <edge id=":28584151_1" function="internal">
        <lane id=":28584151_1_0" index="0"  speed="3.65" length="0.54" shape="1557.00,1174.40 1556.46,1174.41"/>
    </edge>
    <edge id=":28584151_2" function="internal">
        <lane id=":28584151_2_0" index="0"  speed="3.65" length="4.13" shape="1556.46,1174.41 1555.55,1174.42 1554.77,1173.99 1554.64,1173.11 1555.17,1171.77"/>
    </edge>
    <edge id=":28584172_0" function="internal">
        <lane id=":28584172_0_0" index="0"  speed="13.89" length="10.64" shape="1574.32,910.81 1566.73,903.34"/>
    </edge>
    <edge id=":28584172_1" function="internal">
        <lane id=":28584172_1_0" index="0"  speed="6.59" length="8.75" shape="1574.32,910.81 1572.92,908.95 1572.42,907.03 1572.82,905.05 1574.13,903.01"/>
    </edge>
    <edge id=":28584189_0" function="internal">
        <lane id=":28584189_0_0" index="0"  speed="6.55" length="7.79" shape="1639.23,827.96 1638.28,829.82 1638.06,831.62 1638.57,833.36 1639.80,835.04"/>
    </edge>
    <edge id=":28584189_1" function="internal">
        <lane id=":28584189_1_0" index="0"  speed="3.65" length="1.44" shape="1639.23,827.96 1637.89,828.49"/>
    </edge>
    <edge id=":28584189_4" function="internal">
        <lane id=":28584189_4_0" index="0"  speed="3.65" length="3.23" shape="1637.89,828.49 1637.00,828.36 1636.58,827.58 1636.60,826.14"/>
    </edge>
    <edge id=":28584189_2" function="internal">
        <lane id=":28584189_2_0" index="0"  speed="13.89" length="9.42" shape="1632.22,834.41 1633.80,832.15 1634.54,830.38 1635.22,828.55 1636.60,826.14"/>
    </edge>
    <edge id=":28584189_3" function="internal">
        <lane id=":28584189_3_0" index="0"  speed="6.24" length="4.88" shape="1632.22,834.41 1633.91,833.01 1635.74,832.64 1636.51,832.91"/>
    </edge>
    <edge id=":28584189_5" function="internal">
        <lane id=":28584189_5_0" index="0"  speed="6.24" length="3.97" shape="1636.51,832.91 1637.71,833.32 1639.80,835.04"/>
    </edge>
    <edge id=":28587330_0" function="internal">
        <lane id=":28587330_0_0" index="0"  speed="13.89" length="9.80" shape="1608.36,1088.61 1600.67,1082.53"/>
    </edge>
    <edge id=":28587330_1" function="internal">
        <lane id=":28587330_1_0" index="0"  speed="6.71" length="2.50" shape="1608.36,1088.61 1606.77,1086.68"/>
    </edge>
    <edge id=":28587330_4" function="internal">
        <lane id=":28587330_4_0" index="0"  speed="6.71" length="8.52" shape="1606.77,1086.68 1606.55,1084.50 1607.70,1082.09 1610.21,1079.43"/>
    </edge>
    <edge id=":28587330_2" function="internal">
        <lane id=":28587330_2_0" index="0"  speed="6.74" length="8.34" shape="1602.64,1080.01 1604.48,1081.04 1606.35,1081.28 1608.26,1080.75 1610.21,1079.43"/>
    </edge>
    <edge id=":28587330_3" function="internal">
        <lane id=":28587330_3_0" index="0"  speed="13.89" length="9.84" shape="1602.64,1080.01 1610.36,1086.11"/>
    </edge>
    <edge id=":2884057343_0" function="internal">
        <lane id=":2884057343_0_0" index="0"  speed="13.89" length="8.36" shape="1123.87,734.48 1122.48,736.54 1122.17,738.40 1121.87,740.26 1120.51,742.35"/>
        <lane id=":2884057343_0_1" index="1"  speed="13.89" length="8.36" shape="1123.87,734.48 1118.23,740.11"/>
    </edge>
    <edge id=":2884057343_2" function="internal">
        <lane id=":2884057343_2_0" index="0"  speed="13.89" length="8.03" shape="1115.95,737.86 1121.63,732.19"/>
    </edge>
    <edge id=":28851231_0" function="internal">
        <lane id=":28851231_0_0" index="0"  speed="8.25" length="8.95" shape="1763.58,654.50 1763.14,652.42 1762.13,650.60 1760.56,649.02 1758.42,647.70"/>
    </edge>
    <edge id=":28851231_1" function="internal">
        <lane id=":28851231_1_0" index="0"  speed="13.08" length="12.33" shape="1763.58,654.50 1763.56,651.17 1764.09,648.41 1765.22,645.80 1766.98,642.95"/>
    </edge>
    <edge id=":28851231_2" function="internal">
        <lane id=":28851231_2_0" index="0"  speed="3.65" length="1.44" shape="1763.58,654.50 1764.29,653.24"/>
    </edge>
    <edge id=":28851231_9" function="internal">
        <lane id=":28851231_9_0" index="0"  speed="3.65" length="3.23" shape="1764.29,653.24 1765.06,652.78 1765.89,653.12 1766.78,654.26"/>
    </edge>
    <edge id=":28851231_3" function="internal">
        <lane id=":28851231_3_0" index="0"  speed="11.97" length="10.27" shape="1769.63,644.74 1767.96,647.27 1767.02,649.18 1766.67,651.26 1766.78,654.26"/>
    </edge>
    <edge id=":28851231_4" function="internal">
        <lane id=":28851231_4_0" index="0"  speed="8.04" length="3.47" shape="1769.63,644.74 1767.32,647.32"/>
    </edge>
    <edge id=":28851231_5" function="internal">
        <lane id=":28851231_5_0" index="0"  speed="3.65" length="1.44" shape="1769.63,644.74 1768.30,645.29"/>
    </edge>
    <edge id=":28851231_10" function="internal">
        <lane id=":28851231_10_0" index="0"  speed="8.04" length="9.40" shape="1767.32,647.32 1764.67,648.67 1761.71,648.80 1758.42,647.70"/>
    </edge>
    <edge id=":28851231_11" function="internal">
        <lane id=":28851231_11_0" index="0"  speed="3.65" length="3.23" shape="1768.30,645.29 1767.41,645.17 1766.97,644.39 1766.98,642.95"/>
    </edge>
    <edge id=":28851231_6" function="internal">
        <lane id=":28851231_6_0" index="0"  speed="6.53" length="8.19" shape="1759.85,644.83 1761.94,645.53 1763.82,645.45 1765.51,644.59 1766.98,642.95"/>
    </edge>
    <edge id=":28851231_7" function="internal">
        <lane id=":28851231_7_0" index="0"  speed="9.58" length="12.26" shape="1759.85,644.83 1762.70,646.62 1764.81,648.79 1766.17,651.34 1766.78,654.26"/>
    </edge>
    <edge id=":28851231_8" function="internal">
        <lane id=":28851231_8_0" index="0"  speed="3.65" length="4.67" shape="1759.85,644.83 1760.56,646.08 1760.57,646.98 1759.85,647.52 1758.42,647.70"/>
    </edge>
    <edge id=":292266876_0" function="internal">
        <lane id=":292266876_0_0" index="0"  speed="8.33" length="14.45" shape="1518.59,1554.30 1507.15,1563.14"/>
    </edge>
    <edge id=":292266876_1" function="internal">
        <lane id=":292266876_1_0" index="0"  speed="8.26" length="3.97" shape="1518.59,1554.30 1515.29,1556.16 1515.10,1556.18"/>
    </edge>
    <edge id=":292266876_7" function="internal">
        <lane id=":292266876_7_0" index="0"  speed="8.26" length="10.35" shape="1515.10,1556.18 1512.08,1556.54 1508.95,1555.43 1505.90,1552.85"/>
    </edge>
    <edge id=":292266876_2" function="internal">
        <lane id=":292266876_2_0" index="0"  speed="6.81" length="9.44" shape="1508.28,1550.71 1510.30,1552.44 1512.37,1553.19 1514.47,1552.97 1516.62,1551.78"/>
    </edge>
    <edge id=":292266876_3" function="internal">
        <lane id=":292266876_3_0" index="0"  speed="7.86" length="14.51" shape="1508.28,1550.71 1510.52,1554.04 1511.08,1557.23 1509.96,1560.26 1507.15,1563.14"/>
    </edge>
    <edge id=":292266876_4" function="internal">
        <lane id=":292266876_4_0" index="0"  speed="3.65" length="4.67" shape="1508.28,1550.71 1508.49,1552.13 1508.16,1552.97 1507.30,1553.21 1505.90,1552.85"/>
    </edge>
    <edge id=":292266876_5" function="internal">
        <lane id=":292266876_5_0" index="0"  speed="6.34" length="9.04" shape="1505.20,1560.60 1506.95,1558.80 1507.65,1556.92 1507.30,1554.93 1505.90,1552.85"/>
    </edge>
    <edge id=":292266876_6" function="internal">
        <lane id=":292266876_6_0" index="0"  speed="8.33" length="14.43" shape="1505.20,1560.60 1516.62,1551.78"/>
    </edge>
    <edge id=":292272906_0" function="internal">
        <lane id=":292272906_0_0" index="0"  speed="8.33" length="14.52" shape="1415.89,1426.33 1404.47,1435.31"/>
    </edge>
    <edge id=":292272906_1" function="internal">
        <lane id=":292272906_1_0" index="0"  speed="7.84" length="14.57" shape="1415.89,1426.33 1412.40,1428.39 1409.19,1428.75 1406.24,1427.41 1403.56,1424.37"/>
    </edge>
    <edge id=":292272906_2" function="internal">
        <lane id=":292272906_2_0" index="0"  speed="6.31" length="9.04" shape="1406.23,1422.62 1407.90,1424.50 1409.73,1425.33 1411.72,1425.11 1413.89,1423.83"/>
    </edge>
    <edge id=":292272906_3" function="internal">
        <lane id=":292272906_3_0" index="0"  speed="8.28" length="14.37" shape="1406.23,1422.62 1407.98,1426.24 1408.26,1429.56 1407.10,1432.58 1404.47,1435.31"/>
    </edge>
    <edge id=":292272906_4" function="internal">
        <lane id=":292272906_4_0" index="0"  speed="6.83" length="9.49" shape="1402.52,1432.77 1404.22,1430.99 1404.95,1429.00 1404.73,1426.79 1403.56,1424.37"/>
    </edge>
    <edge id=":292272906_5" function="internal">
        <lane id=":292272906_5_0" index="0"  speed="8.33" length="14.46" shape="1402.52,1432.77 1413.89,1423.83"/>
    </edge>
    <edge id=":292279060_0" function="internal">
        <lane id=":292279060_0_0" index="0"  speed="6.41" length="4.52" shape="1375.14,1618.60 1374.19,1619.28 1373.17,1619.68 1372.08,1619.82 1370.93,1619.69"/>
    </edge>
    <edge id=":292279060_1" function="internal">