<?xml version="1.0" encoding="UTF-8"?>

<!-- generated on 2025-10-16 13:58:35 by Eclipse SUMO netedit Version 1.22.0
<neteditConfiguration xmlns:xsi="http://www.w3.org/2001/XMLSchema-instance" xsi:noNamespaceSchemaLocation="http://sumo.dlr.de/xsd/neteditConfiguration.xsd">

    <input>
        <sumocfg-file value="C:\ITS\TrafficLightControl\Project\trafficlight-algorithm\data\caugiay\usecase_1\caugiay.sumocfg"/>
        <additional-files value="C:\ITS\TrafficLightControl\Project\trafficlight-algorithm\data\caugiay\usecase_1\caugiay.add.xml"/>
        <route-files value="C:\ITS\TrafficLightControl\Project\trafficlight-algorithm\data\caugiay\usecase_1\caugiay.rou.xml"/>
        <sumo-net-file value="C:\ITS\TrafficLightControl\Project\trafficlight-algorithm\data\caugiay\usecase_1\caugiay_lang_v2.net.xml"/>
    </input>

    <output>
        <output-file value="C:\ITS\TrafficLightControl\Project\trafficlight-algorithm\data\caugiay\usecase_1\caugiay_lang_v2.net.xml"/>
    </output>

    <processing>
        <geometry.min-radius.fix.railways value="false"/>
        <geometry.avoid-overlap value="0"/>
        <geometry.max-grade.fix value="false"/>
        <offset.disable-normalization value="true"/>
        <lefthand value="0"/>
    </processing>

    <junctions>
        <no-turnarounds value="true"/>
        <junctions.corner-detail value="5"/>
        <junctions.limit-turn-speed value="5.50"/>
        <rectangular-lane-cut value="0"/>
    </junctions>

    <pedestrian>
        <walkingareas value="0"/>
    </pedestrian>

</neteditConfiguration>
-->

<net version="1.20" junctionCornerDetail="5" limitTurnSpeed="5.50" avoidOverlap="0" xmlns:xsi="http://www.w3.org/2001/XMLSchema-instance" xsi:noNamespaceSchemaLocation="http://sumo.dlr.de/xsd/net_file.xsd">

    <location netOffset="-581155.35,-2324860.75" convBoundary="498.84,-916.06,2498.39,1260.26" origBoundary="105.781051,20.960406,105.813160,21.045988" projParameter="+proj=utm +zone=48 +ellps=WGS84 +datum=WGS84 +units=m +no_defs"/>

    <type id="highway.residential" priority="3" numLanes="1" speed="13.89" disallow="tram rail_urban rail rail_electric rail_fast ship container cable_car subway aircraft wheelchair scooter drone" oneway="0"/>
    <type id="highway.secondary" priority="11" numLanes="1" speed="27.78" disallow="tram rail_urban rail rail_electric rail_fast ship container cable_car subway aircraft wheelchair scooter drone" oneway="0"/>
    <type id="highway.secondary_link" priority="6" numLanes="1" speed="22.22" disallow="tram rail_urban rail rail_electric rail_fast ship container cable_car subway aircraft wheelchair scooter drone" oneway="0"/>
    <type id="highway.tertiary" priority="10" numLanes="1" speed="22.22" disallow="tram rail_urban rail rail_electric rail_fast ship container cable_car subway aircraft wheelchair scooter drone" oneway="0"/>

    <edge id=":1_0" function="internal">
        <lane id=":1_0_0" index="0" disallow="tram rail_urban rail rail_electric rail_fast ship container cable_car subway aircraft wheelchair scooter drone" speed="11.03" length="31.90" shape="881.06,237.76 872.49,232.39 865.17,230.86 859.09,233.16 854.26,239.30"/>
    </edge>
    <edge id=":1_1" function="internal">
        <lane id=":1_1_0" index="0" disallow="tram rail_urban rail rail_electric rail_fast ship container cable_car subway aircraft wheelchair scooter drone" speed="13.89" length="55.11" width="3.32" shape="881.06,237.76 835.86,206.24"/>
    </edge>
    <edge id=":1_2" function="internal">
        <lane id=":1_2_0" index="0" disallow="tram rail_urban rail rail_electric rail_fast ship container cable_car subway aircraft wheelchair scooter drone" speed="15.22" length="5.84" shape="881.06,237.76 876.75,233.83"/>
    </edge>
    <edge id=":1_16" function="internal">
        <lane id=":1_16_0" index="0" disallow="tram rail_urban rail rail_electric rail_fast ship container cable_car subway aircraft wheelchair scooter drone" speed="15.22" length="41.61" shape="876.75,233.83 868.95,226.71 861.59,216.50 858.98,207.15 861.12,198.65"/>
    </edge>
    <edge id=":1_3" function="internal">
        <lane id=":1_3_0" index="0" disallow="tram rail_urban rail rail_electric rail_fast ship container cable_car subway aircraft wheelchair scooter drone" speed="12.78" length="34.35" width="3.32" shape="873.58,205.61 870.78,213.01 871.43,220.40 875.55,227.78 883.12,235.16"/>
    </edge>
    <edge id=":1_4" function="internal">
        <lane id=":1_4_0" index="0" disallow="tram rail_urban rail rail_electric rail_fast ship container cable_car subway aircraft wheelchair scooter drone" speed="27.78" length="38.93" shape="873.58,205.61 854.26,239.30"/>
        <lane id=":1_4_1" index="1" disallow="tram rail_urban rail rail_electric rail_fast ship container cable_car subway aircraft wheelchair scooter drone" speed="27.78" length="38.93" shape="870.78,204.05 851.42,237.82"/>
        <lane id=":1_4_2" index="2" disallow="tram rail_urban rail rail_electric rail_fast ship container cable_car subway aircraft wheelchair scooter drone" speed="27.78" length="38.93" shape="867.99,202.49 848.58,236.34"/>
    </edge>
    <edge id=":1_7" function="internal">
        <lane id=":1_7_0" index="0" disallow="tram rail_urban rail rail_electric rail_fast ship container cable_car subway aircraft wheelchair scooter drone" speed="12.51" length="38.79" width="3.32" shape="867.99,202.49 861.03,211.05 853.80,214.15 845.63,212.35 835.86,206.24"/>
    </edge>
    <edge id=":1_8" function="internal">
        <lane id=":1_8_0" index="0" disallow="tram rail_urban rail rail_electric rail_fast ship container cable_car subway aircraft wheelchair scooter drone" speed="9.52" length="22.56" shape="837.84,203.58 842.44,205.68 846.92,205.04 851.29,201.66 855.54,195.53"/>
    </edge>
    <edge id=":1_9" function="internal">
        <lane id=":1_9_0" index="0" disallow="tram rail_urban rail rail_electric rail_fast ship container cable_car subway aircraft wheelchair scooter drone" speed="13.89" length="55.20" width="3.32" shape="837.84,203.58 883.12,235.16"/>
    </edge>
    <edge id=":1_10" function="internal">
        <lane id=":1_10_0" index="0" disallow="tram rail_urban rail rail_electric rail_fast ship container cable_car subway aircraft wheelchair scooter drone" speed="13.65" length="5.37" shape="837.84,203.58 841.77,207.25"/>
    </edge>
    <edge id=":1_17" function="internal">
        <lane id=":1_17_0" index="0" disallow="tram rail_urban rail rail_electric rail_fast ship container cable_car subway aircraft wheelchair scooter drone" speed="13.65" length="32.61" shape="841.77,207.25 846.03,211.24 850.55,219.25 851.40,227.62 848.58,236.34"/>
    </edge>
    <edge id=":1_11" function="internal">
        <lane id=":1_11_0" index="0" disallow="tram rail_urban rail rail_electric rail_fast ship container cable_car subway aircraft wheelchair scooter drone" speed="11.13" length="26.03" width="3.32" shape="836.14,229.84 839.70,222.27 840.84,215.81 839.56,210.47 835.86,206.24"/>
    </edge>
    <edge id=":1_12" function="internal">
        <lane id=":1_12_0" index="0" disallow="tram rail_urban rail rail_electric rail_fast ship container cable_car subway aircraft wheelchair scooter drone" speed="27.78" length="39.32" shape="836.14,229.84 855.54,195.53"/>
        <lane id=":1_12_1" index="1" disallow="tram rail_urban rail rail_electric rail_fast ship container cable_car subway aircraft wheelchair scooter drone" speed="27.78" length="39.32" shape="838.98,231.32 858.33,197.09"/>
        <lane id=":1_12_2" index="2" disallow="tram rail_urban rail rail_electric rail_fast ship container cable_car subway aircraft wheelchair scooter drone" speed="27.78" length="39.32" shape="841.82,232.80 861.12,198.65"/>
    </edge>
    <edge id=":1_15" function="internal">
        <lane id=":1_15_0" index="0" disallow="tram rail_urban rail rail_electric rail_fast ship container cable_car subway aircraft wheelchair scooter drone" speed="13.79" length="48.92" width="3.32" shape="841.82,232.80 850.02,223.88 859.52,222.15 870.50,226.34 883.12,235.16"/>
    </edge>
    <edge id=":10202001781_0" function="internal">
        <lane id=":10202001781_0_0" index="0" disallow="tram rail_urban rail rail_electric rail_fast ship container cable_car subway aircraft wheelchair scooter drone" speed="12.34" length="17.41" width="3.75" shape="527.11,-287.36 527.71,-283.01 528.93,-279.29 530.75,-276.19 533.19,-273.73"/>
        <lane id=":10202001781_0_1" index="1" disallow="tram rail_urban rail rail_electric rail_fast ship container cable_car subway aircraft wheelchair scooter drone" speed="13.05" length="17.41" width="3.75" shape="527.11,-287.36 527.69,-280.94 528.51,-276.04 529.57,-272.65 530.88,-270.78"/>
        <lane id=":10202001781_0_2" index="2" disallow="tram rail_urban rail rail_electric rail_fast ship container cable_car subway aircraft wheelchair scooter drone" speed="13.88" length="17.41" width="3.75" shape="527.11,-287.36 527.25,-283.98 527.57,-277.45 528.02,-271.00 528.57,-267.83"/>
    </edge>
    <edge id=":10202001781_3" function="internal">
        <lane id=":10202001781_3_0" index="0" disallow="tram rail_urban rail rail_electric rail_fast ship container cable_car subway aircraft wheelchair scooter drone" speed="27.78" length="15.53" width="3.75" shape="520.60,-283.02 533.19,-273.73"/>
        <lane id=":10202001781_3_1" index="1" disallow="tram rail_urban rail rail_electric rail_fast ship container cable_car subway aircraft wheelchair scooter drone" speed="27.78" length="15.53" width="3.75" shape="518.35,-280.02 530.88,-270.78"/>
        <lane id=":10202001781_3_2" index="2" disallow="tram rail_urban rail rail_electric rail_fast ship container cable_car subway aircraft wheelchair scooter drone" speed="27.78" length="15.53" width="3.75" shape="516.10,-277.02 528.57,-267.83"/>
        <lane id=":10202001781_3_3" index="3" disallow="tram rail_urban rail rail_electric rail_fast ship container cable_car subway aircraft wheelchair scooter drone" speed="27.78" length="15.53" width="3.75" shape="513.85,-274.02 526.26,-264.87"/>
    </edge>
    <edge id=":10203920324_0" function="internal">
        <lane id=":10203920324_0_0" index="0" disallow="tram rail_urban rail rail_electric rail_fast ship container cable_car subway aircraft wheelchair scooter drone" speed="27.78" length="13.06" shape="905.60,108.29 911.99,96.98"/>
        <lane id=":10203920324_0_1" index="1" disallow="tram rail_urban rail rail_electric rail_fast ship container cable_car subway aircraft wheelchair scooter drone" speed="27.78" length="13.06" shape="908.38,109.88 914.80,98.51"/>
        <lane id=":10203920324_0_2" index="2" disallow="tram rail_urban rail rail_electric rail_fast ship container cable_car subway aircraft wheelchair scooter drone" speed="27.78" length="13.06" shape="911.16,111.46 917.61,100.04"/>
    </edge>
    <edge id=":10203920324_3" function="internal">
        <lane id=":10203920324_3_0" index="0" disallow="tram rail_urban rail rail_electric rail_fast ship container cable_car subway aircraft wheelchair scooter drone" speed="7.27" length="11.14" shape="911.16,111.46 913.43,108.34 915.62,106.44 917.76,105.75 919.83,106.28"/>
        <lane id=":10203920324_3_1" index="1" disallow="tram rail_urban rail rail_electric rail_fast ship container cable_car subway aircraft wheelchair scooter drone" speed="6.42" length="8.46" shape="911.16,111.46 912.70,109.54 914.40,108.50 916.25,108.35 918.27,109.07"/>
    </edge>
    <edge id=":1219243660_0" function="internal">
        <lane id=":1219243660_0_0" index="0" disallow="tram rail_urban rail rail_electric rail_fast ship container cable_car subway aircraft wheelchair scooter drone" speed="8.87" length="17.28" shape="1200.53,242.90 1202.06,245.29 1201.88,248.64 1199.98,252.95 1196.37,258.21"/>
    </edge>
    <edge id=":1219243660_1" function="internal">
        <lane id=":1219243660_1_0" index="0" disallow="tram rail_urban rail rail_electric rail_fast ship container cable_car subway aircraft wheelchair scooter drone" speed="3.65" length="4.67" shape="1193.85,256.25 1195.21,255.79 1196.09,255.97 1196.48,256.78 1196.37,258.21"/>
    </edge>
    <edge id=":1220930867_0" function="internal">
        <lane id=":1220930867_0_0" index="0" disallow="tram rail_urban rail rail_electric rail_fast ship container cable_car subway aircraft wheelchair scooter drone" speed="8.78" length="17.63" width="3.75" shape="1195.53,259.30 1191.26,264.13 1187.47,266.99 1184.17,267.87 1181.36,266.77"/>
        <lane id=":1220930867_0_1" index="1" disallow="tram rail_urban rail rail_electric rail_fast ship container cable_car subway aircraft wheelchair scooter drone" speed="7.94" length="14.22" width="3.75" shape="1195.53,259.30 1192.27,262.84 1189.21,264.78 1186.37,265.12 1183.73,263.86"/>
        <lane id=":1220930867_0_2" index="2" disallow="tram rail_urban rail rail_electric rail_fast ship container cable_car subway aircraft wheelchair scooter drone" speed="7.05" length="10.96" width="3.75" shape="1195.53,259.30 1193.28,261.55 1190.95,262.57 1188.56,262.37 1186.10,260.95"/>
        <lane id=":1220930867_0_3" index="3" disallow="tram rail_urban rail rail_electric rail_fast ship container cable_car subway aircraft wheelchair scooter drone" speed="6.12" length="8.02" width="3.75" shape="1195.53,259.30 1194.29,260.26 1192.70,260.36 1190.76,259.63 1188.47,258.05"/>
    </edge>
    <edge id=":1220930867_4" function="internal">
        <lane id=":1220930867_4_0" index="0" disallow="tram rail_urban rail rail_electric rail_fast ship container cable_car subway aircraft wheelchair scooter drone" speed="3.65" length="4.67" shape="1195.53,259.30 1194.16,259.76 1193.29,259.58 1192.90,258.78 1193.00,257.34"/>
    </edge>
    <edge id=":1881927757_0" function="internal">
        <lane id=":1881927757_0_0" index="0" disallow="tram rail_urban rail rail_electric rail_fast ship container cable_car subway aircraft wheelchair scooter drone" speed="11.87" length="14.10" width="7.00" shape="911.16,12.56 914.30,14.48 917.57,15.66 920.96,16.08 924.47,15.76"/>
    </edge>
    <edge id=":1881927757_1" function="internal">
        <lane id=":1881927757_1_0" index="0" disallow="tram rail_urban rail rail_electric rail_fast ship container cable_car subway aircraft wheelchair scooter drone" speed="27.78" length="15.86" width="3.75" shape="911.16,12.56 923.85,22.17"/>
        <lane id=":1881927757_1_1" index="1" disallow="tram rail_urban rail rail_electric rail_fast ship container cable_car subway aircraft wheelchair scooter drone" speed="27.78" length="15.86" width="3.75" shape="908.92,15.57 921.58,25.15"/>
        <lane id=":1881927757_1_2" index="2" disallow="tram rail_urban rail rail_electric rail_fast ship container cable_car subway aircraft wheelchair scooter drone" speed="27.78" length="15.86" width="3.75" shape="906.68,18.58 919.31,28.14"/>
        <lane id=":1881927757_1_3" index="3" disallow="tram rail_urban rail rail_electric rail_fast ship container cable_car subway aircraft wheelchair scooter drone" speed="27.78" length="15.86" width="3.75" shape="904.43,21.58 917.03,31.12"/>
    </edge>
    <edge id=":1881927757_5" function="internal">
        <lane id=":1881927757_5_0" index="0" disallow="tram rail_urban rail rail_electric rail_fast ship container cable_car subway aircraft wheelchair scooter drone" speed="6.23" length="7.85" shape="904.43,21.58 905.95,23.06 907.27,24.97 908.03,26.84 907.90,28.23"/>
    </edge>
    <edge id=":1881927757_6" function="internal">
        <lane id=":1881927757_6_0" index="0" disallow="tram rail_urban rail rail_electric rail_fast ship container cable_car subway aircraft wheelchair scooter drone" speed="15.76" length="22.18" width="7.00" shape="905.29,26.38 908.81,23.13 914.12,19.90 919.81,17.25 924.47,15.76"/>
    </edge>
    <edge id=":1881927757_7" function="internal">
        <lane id=":1881927757_7_0" index="0" disallow="tram rail_urban rail rail_electric rail_fast ship container cable_car subway aircraft wheelchair scooter drone" speed="8.11" length="14.99" width="3.75" shape="905.29,26.38 907.82,25.03 911.66,25.10 915.82,26.25 919.31,28.14"/>
        <lane id=":1881927757_7_1" index="1" disallow="tram rail_urban rail rail_electric rail_fast ship container cable_car subway aircraft wheelchair scooter drone" speed="7.58" length="12.97" width="3.75" shape="905.29,26.38 907.06,26.18 910.26,27.28 913.92,29.11 917.03,31.12"/>
    </edge>
    <edge id=":1881928007_0" function="internal">
        <lane id=":1881928007_0_0" index="0" disallow="tram rail_urban rail rail_electric rail_fast ship container cable_car subway aircraft wheelchair scooter drone" speed="13.93" length="13.23" width="7.50" shape="912.09,96.80 913.64,93.11 914.00,90.13 913.65,87.27 913.06,83.98"/>
    </edge>
    <edge id=":1881928007_1" function="internal">
        <lane id=":1881928007_1_0" index="0" disallow="tram rail_urban rail rail_electric rail_fast ship container cable_car subway aircraft wheelchair scooter drone" speed="27.78" length="14.14" shape="912.09,96.80 919.13,84.47"/>
        <lane id=":1881928007_1_1" index="1" disallow="tram rail_urban rail rail_electric rail_fast ship container cable_car subway aircraft wheelchair scooter drone" speed="27.78" length="14.14" shape="914.89,98.33 921.91,86.06"/>
        <lane id=":1881928007_1_2" index="2" disallow="tram rail_urban rail rail_electric rail_fast ship container cable_car subway aircraft wheelchair scooter drone" speed="27.78" length="14.14" shape="917.70,99.87 924.69,87.65"/>
    </edge>
    <edge id=":1881928008_0" function="internal">
        <lane id=":1881928008_0_0" index="0" disallow="tram rail_urban rail rail_electric rail_fast ship container cable_car subway aircraft wheelchair scooter drone" speed="17.34" length="19.26" width="3.75" shape="905.16,51.58 903.87,47.94 901.99,44.16 898.97,40.23 894.26,36.17"/>
    </edge>
    <edge id=":1881928008_1" function="internal">
        <lane id=":1881928008_1_0" index="0" disallow="tram rail_urban rail rail_electric rail_fast ship container cable_car subway aircraft wheelchair scooter drone" speed="14.75" length="25.51" shape="905.16,51.58 903.65,44.89 903.11,37.59 903.60,31.03 905.17,26.54"/>
    </edge>
    <edge id=":1881928008_2" function="internal">
        <lane id=":1881928008_2_0" index="0" disallow="tram rail_urban rail rail_electric rail_fast ship container cable_car subway aircraft wheelchair scooter drone" speed="27.78" length="21.11" width="3.75" shape="910.84,48.91 894.26,36.17"/>
        <lane id=":1881928008_2_1" index="1" disallow="tram rail_urban rail rail_electric rail_fast ship container cable_car subway aircraft wheelchair scooter drone" speed="27.78" length="21.11" width="3.75" shape="913.14,45.95 896.44,33.13"/>
        <lane id=":1881928008_2_2" index="2" disallow="tram rail_urban rail rail_electric rail_fast ship container cable_car subway aircraft wheelchair scooter drone" speed="27.78" length="21.11" width="3.75" shape="915.43,42.98 898.63,30.08"/>
        <lane id=":1881928008_2_3" index="3" disallow="tram rail_urban rail rail_electric rail_fast ship container cable_car subway aircraft wheelchair scooter drone" speed="27.78" length="21.11" width="3.75" shape="917.72,40.01 900.81,27.03"/>
    </edge>
    <edge id=":1881928008_6" function="internal">
        <lane id=":1881928008_6_0" index="0" disallow="tram rail_urban rail rail_electric rail_fast ship container cable_car subway aircraft wheelchair scooter drone" speed="9.26" length="18.58" shape="917.72,40.01 913.59,36.49 909.30,32.33 906.08,28.63 905.17,26.54"/>
    </edge>
    <edge id=":1881928008_7" function="internal">
        <lane id=":1881928008_7_0" index="0" disallow="tram rail_urban rail rail_electric rail_fast ship container cable_car subway aircraft wheelchair scooter drone" speed="5.96" length="7.43" width="3.75" shape="907.78,28.39 906.60,28.88 904.70,28.68 902.59,28.00 900.81,27.03"/>
    </edge>
    <edge id=":1919751043_0" function="internal">
        <lane id=":1919751043_0_0" index="0" disallow="tram rail_urban rail rail_electric rail_fast ship container cable_car subway aircraft wheelchair scooter drone" speed="27.78" length="0.90" shape="692.94,475.18 693.00,475.12 693.03,475.07 693.07,475.02 693.11,474.94"/>
        <lane id=":1919751043_0_1" index="1" disallow="tram rail_urban rail rail_electric rail_fast ship container cable_car subway aircraft wheelchair scooter drone" speed="27.78" length="0.90" shape="695.33,477.31 695.51,477.11 695.62,476.96 695.72,476.81 695.86,476.58"/>
        <lane id=":1919751043_0_2" index="2" disallow="tram rail_urban rail rail_electric rail_fast ship container cable_car subway aircraft wheelchair scooter drone" speed="27.78" length="0.90" shape="697.72,479.43 698.02,479.10 698.21,478.86 698.38,478.60 698.61,478.22"/>
    </edge>
    <edge id=":2_0" function="internal">
        <lane id=":2_0_0" index="0" disallow="tram rail_urban rail rail_electric rail_fast ship container cable_car subway aircraft wheelchair scooter drone" speed="10.76" length="26.66" shape="781.49,408.44 772.83,404.22 765.96,402.54 760.86,403.43 757.54,406.87"/>
    </edge>
    <edge id=":2_1" function="internal">
        <lane id=":2_1_0" index="0" disallow="tram rail_urban rail rail_electric rail_fast ship container cable_car subway aircraft wheelchair scooter drone" speed="13.89" length="54.53" width="5.53" shape="781.49,408.44 734.38,380.98"/>
    </edge>
    <edge id=":2_2" function="internal">
        <lane id=":2_2_0" index="0" disallow="tram rail_urban rail rail_electric rail_fast ship container cable_car subway aircraft wheelchair scooter drone" speed="14.17" length="18.49" shape="781.49,408.44 768.13,399.33 766.57,397.61"/>
    </edge>
    <edge id=":2_16" function="internal">
        <lane id=":2_16_0" index="0" disallow="tram rail_urban rail rail_electric rail_fast ship container cable_car subway aircraft wheelchair scooter drone" speed="14.17" length="27.77" shape="766.57,397.61 760.01,390.41 757.11,381.69 759.44,373.17"/>
    </edge>
    <edge id=":2_3" function="internal">
        <lane id=":2_3_0" index="0" disallow="tram rail_urban rail rail_electric rail_fast ship container cable_car subway aircraft wheelchair scooter drone" speed="11.28" length="29.34" width="5.53" shape="771.99,380.60 770.14,386.53 771.57,392.34 776.27,398.05 784.25,403.66"/>
    </edge>
    <edge id=":2_4" function="internal">
        <lane id=":2_4_0" index="0" disallow="tram rail_urban rail rail_electric rail_fast ship container cable_car subway aircraft wheelchair scooter drone" speed="27.78" length="30.14" shape="771.99,380.60 757.54,406.87"/>
        <lane id=":2_4_1" index="1" disallow="tram rail_urban rail rail_electric rail_fast ship container cable_car subway aircraft wheelchair scooter drone" speed="27.78" length="30.14" shape="769.22,378.99 754.70,405.40"/>
        <lane id=":2_4_2" index="2" disallow="tram rail_urban rail rail_electric rail_fast ship container cable_car subway aircraft wheelchair scooter drone" speed="27.78" length="30.14" shape="766.45,377.38 751.86,403.93"/>
    </edge>
    <edge id=":2_7" function="internal">
        <lane id=":2_7_0" index="0" disallow="tram rail_urban rail rail_electric rail_fast ship container cable_car subway aircraft wheelchair scooter drone" speed="12.60" length="36.50" width="5.53" shape="766.45,377.38 760.85,383.78 753.64,386.51 744.81,385.58 734.38,380.98"/>
    </edge>
    <edge id=":2_8" function="internal">
        <lane id=":2_8_0" index="0" disallow="tram rail_urban rail rail_electric rail_fast ship container cable_car subway aircraft wheelchair scooter drone" speed="9.68" length="20.33" shape="737.12,376.18 741.86,377.90 746.24,377.43 750.26,374.77 753.92,369.93"/>
    </edge>
    <edge id=":2_9" function="internal">
        <lane id=":2_9_0" index="0" disallow="tram rail_urban rail rail_electric rail_fast ship container cable_car subway aircraft wheelchair scooter drone" speed="13.89" length="54.55" width="5.53" shape="737.12,376.18 784.25,403.66"/>
    </edge>
    <edge id=":2_10" function="internal">
        <lane id=":2_10_0" index="0" disallow="tram rail_urban rail rail_electric rail_fast ship container cable_car subway aircraft wheelchair scooter drone" speed="12.65" length="13.90" shape="737.12,376.18 746.45,382.73 748.04,384.67"/>
    </edge>
    <edge id=":2_17" function="internal">
        <lane id=":2_17_0" index="0" disallow="tram rail_urban rail rail_electric rail_fast ship container cable_car subway aircraft wheelchair scooter drone" speed="12.65" length="21.17" shape="748.04,384.67 752.02,389.53 753.82,396.60 751.86,403.93"/>
    </edge>
    <edge id=":2_11" function="internal">
        <lane id=":2_11_0" index="0" disallow="tram rail_urban rail rail_electric rail_fast ship container cable_car subway aircraft wheelchair scooter drone" speed="9.51" length="19.36" width="5.53" shape="739.33,397.48 740.96,392.44 740.68,388.00 738.48,384.18 734.38,380.98"/>
    </edge>
    <edge id=":2_12" function="internal">
        <lane id=":2_12_0" index="0" disallow="tram rail_urban rail rail_electric rail_fast ship container cable_car subway aircraft wheelchair scooter drone" speed="27.78" length="31.00" shape="739.33,397.48 753.92,369.93"/>
        <lane id=":2_12_1" index="1" disallow="tram rail_urban rail rail_electric rail_fast ship container cable_car subway aircraft wheelchair scooter drone" speed="27.78" length="31.00" shape="742.17,398.95 756.68,371.55"/>
        <lane id=":2_12_2" index="2" disallow="tram rail_urban rail rail_electric rail_fast ship container cable_car subway aircraft wheelchair scooter drone" speed="27.78" length="31.00" shape="745.02,400.41 759.44,373.17"/>
    </edge>
    <edge id=":2_15" function="internal">
        <lane id=":2_15_0" index="0" disallow="tram rail_urban rail rail_electric rail_fast ship container cable_car subway aircraft wheelchair scooter drone" speed="13.48" length="43.55" width="5.53" shape="745.02,400.41 750.39,395.03 758.72,393.77 770.01,396.65 784.25,403.66"/>
    </edge>
    <edge id=":5485707985_0" function="internal">
        <lane id=":5485707985_0_0" index="0" disallow="tram rail_urban rail rail_electric rail_fast ship container cable_car subway aircraft wheelchair scooter drone" speed="16.67" length="0.47" shape="1478.34,-884.89 1478.67,-885.43"/>
        <lane id=":5485707985_0_1" index="1" disallow="tram rail_urban rail rail_electric rail_fast ship container cable_car subway aircraft wheelchair scooter drone" speed="16.67" length="0.47" shape="1481.13,-883.32 1481.38,-883.73"/>
        <lane id=":5485707985_0_2" index="2" disallow="tram rail_urban rail rail_electric rail_fast ship container cable_car subway aircraft wheelchair scooter drone" speed="16.67" length="0.47" shape="1483.93,-881.76 1484.09,-882.03"/>
    </edge>
    <edge id=":8921282801_0" function="internal">
        <lane id=":8921282801_0_0" index="0" disallow="tram rail_urban rail rail_electric rail_fast ship container cable_car subway aircraft wheelchair scooter drone" speed="8.58" length="26.79" width="5.15" shape="508.85,-311.17 514.31,-314.78 519.62,-313.26 523.82,-307.97 525.96,-300.29"/>
    </edge>
    <edge id=":8921282801_1" function="internal">
        <lane id=":8921282801_1_0" index="0" disallow="tram rail_urban rail rail_electric rail_fast ship container cable_car subway aircraft wheelchair scooter drone" speed="3.57" length="4.53" shape="513.58,-307.46 514.90,-307.90 515.75,-307.73 516.12,-306.94 516.01,-305.55"/>
    </edge>
    <edge id=":cluster10202060520_10202060522_10202060524_10202060525_#3more_0" function="internal">
        <lane id=":cluster10202060520_10202060522_10202060524_10202060525_#3more_0_0" index="0" disallow="tram rail_urban rail rail_electric rail_fast ship container cable_car subway aircraft wheelchair scooter drone" speed="14.47" length="50.14" width="3.00" shape="500.95,-259.93 493.34,-268.24 491.18,-278.34 494.45,-290.23 503.16,-303.91"/>
        <lane id=":cluster10202060520_10202060522_10202060524_10202060525_#3more_0_1" index="1" disallow="tram rail_urban rail rail_electric rail_fast ship container cable_car subway aircraft wheelchair scooter drone" speed="13.66" length="44.58" width="3.00" shape="503.20,-262.93 496.54,-270.27 494.71,-279.23 497.70,-289.83 505.52,-302.05"/>
        <lane id=":cluster10202060520_10202060522_10202060524_10202060525_#3more_0_2" index="2" disallow="tram rail_urban rail rail_electric rail_fast ship container cable_car subway aircraft wheelchair scooter drone" speed="12.81" length="39.02" width="3.00" shape="505.45,-265.93 499.74,-272.29 498.24,-280.12 500.95,-289.42 507.88,-300.20"/>
    </edge>
    <edge id=":cluster10202060520_10202060522_10202060524_10202060525_#3more_3" function="internal">
        <lane id=":cluster10202060520_10202060522_10202060524_10202060525_#3more_3_0" index="0" disallow="tram rail_urban rail rail_electric rail_fast ship container cable_car subway aircraft wheelchair scooter drone" speed="8.22" length="15.27" width="3.75" shape="517.21,-296.70 515.35,-294.34 514.22,-291.96 514.47,-289.46 516.10,-286.86 519.11,-284.14"/>
        <lane id=":cluster10202060520_10202060522_10202060524_10202060525_#3more_3_1" index="1" disallow="tram rail_urban rail rail_electric rail_fast ship container cable_car subway aircraft wheelchair scooter drone" speed="9.53" length="20.90" width="3.75" shape="514.69,-298.67 512.84,-296.31 510.84,-292.50 510.84,-288.69 512.85,-284.91 516.86,-281.14"/>
        <lane id=":cluster10202060520_10202060522_10202060524_10202060525_#3more_3_2" index="2" disallow="tram rail_urban rail rail_electric rail_fast ship container cable_car subway aircraft wheelchair scooter drone" speed="10.69" length="26.56" width="3.75" shape="512.17,-300.65 510.32,-298.29 507.45,-293.03 507.21,-287.92 509.59,-282.96 514.60,-278.14"/>