<?xml version="1.0" encoding="UTF-8"?>

<!-- generated on 2025-10-16 13:59:05.012482 by randomTrips.py v1_22_0+0002-63e50f52594
<configuration>
    <net-file value="C:\ITS\TrafficLightControl\Project\trafficlight-algorithm\data\caugiay\usecase_1\caugiay_lang_v2.net.xml"/>
    <additional-files value="C:\ITS\TrafficLightControl\Project\trafficlight-algorithm\data\caugiay\usecase_1\caugiay.add.xml"/>
    <output-trip-file value="C:\ITS\TrafficLightControl\Project\trafficlight-algorithm\data\caugiay\usecase_1\caugiay-random.rou.xml"/>
    <prefix value="r"/>
    <random-departpos value="True"/>
    <random-arrivalpos value="True"/>
    <length value="True"/>
    <lanes value="True"/>
    <random value="True"/>
    <end value="1000.0"/>
    <insertion-density value="500.0"/>
    <random-depart value="True"/>
</configuration>
-->

<routes xmlns:xsi="http://www.w3.org/2001/XMLSchema-instance" xsi:noNamespaceSchemaLocation="http://sumo.dlr.de/xsd/routes_file.xsd">
    <trip id="r0" depart="0.04" from="1012665669#0" to="709788186#0" departPos="232.11" arrivalPos="192.56"/>
    <trip id="r1" depart="0.61" from="163053437#0" to="1012665669#0" departPos="235.94" arrivalPos="45.94"/>
    <trip id="r2" depart="0.81" from="709788186#0" to="116432101" departPos="128.82" arrivalPos="119.17"/>
    <trip id="r3" depart="0.89" from="709788192#0" to="116436710#1" departPos="193.18" arrivalPos="403.55"/>
    <trip id="r4" depart="1.06" from="1012665669#0" to="816200777#2" departPos="32.77" arrivalPos="327.75"/>
    <trip id="r5" depart="1.12" from="816200777#2" to="709788186#0" departPos="287.93" arrivalPos="228.23"/>
    <trip id="r6" depart="1.38" from="163053438#1" to="116436710#1" departPos="174.37" arrivalPos="339.00"/>
    <trip id="r7" depart="1.55" from="163053438#1" to="1284835491" departPos="95.77" arrivalPos="361.57"/>
    <trip id="r8" depart="2.02" from="163053437#0" to="163053438#1" departPos="141.05" arrivalPos="526.51"/>
    <trip id="r9" depart="2.07" from="1284835491" to="1284835491" departPos="79.95" arrivalPos="274.77"/>
    <trip id="r10" depart="2.70" from="163053438#1" to="106042137#1" departPos="10.88" arrivalPos="21.33"/>
    <trip id="r11" depart="2.70" from="816200777#2" to="816200777#2" departPos="321.70" arrivalPos="350.79"/>
    <trip id="r12" depart="2.97" from="816200777#2" to="709788186#0" departPos="426.53" arrivalPos="203.24"/>
    <trip id="r13" depart="3.26" from="1284835491" to="-402098503#1" departPos="360.82" arrivalPos="88.87"/>
    <trip id="r14" depart="3.49" from="1284835491" to="106042137#3" departPos="101.03" arrivalPos="98.12"/>
    <trip id="r15" depart="3.59" from="116432101" to="116432101" departPos="28.40" arrivalPos="129.22"/>
    <trip id="r16" depart="3.91" from="163053437#0" to="1012665669#0" departPos="515.79" arrivalPos="249.62"/>
    <trip id="r17" depart="3.92" from="709788192#0" to="1115710779#0" departPos="67.82" arrivalPos="26.76"/>
    <trip id="r18" depart="5.04" from="163053437#0" to="116436710#1" departPos="36.25" arrivalPos="68.12"/>
    <trip id="r19" depart="5.08" from="163053437#0" to="709788192#0" departPos="91.07" arrivalPos="69.63"/>
    <trip id="r20" depart="5.75" from="163053438#1" to="709788186#0" departPos="78.39" arrivalPos="113.64"/>
    <trip id="r21" depart="5.78" from="163053438#1" to="816200777#2" departPos="280.66" arrivalPos="246.35"/>
    <trip id="r22" depart="6.07" from="709788192#0" to="1284835491" departPos="226.10" arrivalPos="334.57"/>
    <trip id="r23" depart="6.83" from="106042137" to="816200777#2" departPos="69.83" arrivalPos="207.71"/>
    <trip id="r24" depart="7.92" from="116436710#1" to="106042137#3" departPos="9.20" arrivalPos="96.87"/>
    <trip id="r25" depart="8.48" from="116436710#1" to="709788186#0" departPos="39.15" arrivalPos="249.46"/>
    <trip id="r26" depart="10.05" from="106042137#3" to="816200777#2" departPos="10.79" arrivalPos="169.79"/>
    <trip id="r27" depart="10.32" from="816200777#2" to="816200777#2" departPos="320.22" arrivalPos="158.63"/>
    <trip id="r28" depart="10.74" from="116432101" to="709788192#0" departPos="109.08" arrivalPos="118.64"/>
    <trip id="r29" depart="11.16" from="816200777#2" to="816200777#2" departPos="175.45" arrivalPos="235.12"/>
    <trip id="r30" depart="12.63" from="709788192#0" to="106042137#3" departPos="143.10" arrivalPos="38.76"/>
    <trip id="r31" depart="12.66" from="709788186#0" to="1284835491" departPos="138.44" arrivalPos="9.82"/>
    <trip id="r32" depart="12.72" from="816200777#2" to="709788186#0" departPos="414.40" arrivalPos="182.72"/>
    <trip id="r33" depart="13.01" from="163053437#0" to="816200777#2" departPos="403.29" arrivalPos="441.14"/>
    <trip id="r34" depart="13.48" from="816200777#2" to="116432101" departPos="429.01" arrivalPos="133.55"/>
    <trip id="r35" depart="13.50" from="163053437#0" to="816200777#2" departPos="429.55" arrivalPos="15.29"/>
    <trip id="r36" depart="13.52" from="163053438#1" to="1284835491" departPos="81.78" arrivalPos="307.02"/>
    <trip id="r37" depart="13.58" from="1012665669#0" to="163053438#1" departPos="48.92" arrivalPos="148.07"/>
    <trip id="r38" depart="14.83" from="1284835491" to="163053438#1" departPos="291.59" arrivalPos="50.09"/>
    <trip id="r39" depart="15.05" from="816200777#2" to="816200777#2" departPos="67.53" arrivalPos="296.16"/>
    <trip id="r40" depart="15.22" from="116436710#1" to="1012665669#0" departPos="356.09" arrivalPos="35.35"/>
    <trip id="r41" depart="15.35" from="116432101" to="163053438#1" departPos="15.59" arrivalPos="444.86"/>
    <trip id="r42" depart="15.59" from="163053437#0" to="116432101" departPos="340.65" arrivalPos="54.75"/>
    <trip id="r43" depart="15.63" from="1284835491" to="106042137" departPos="118.85" arrivalPos="118.43"/>
    <trip id="r44" depart="16.91" from="1012665669#0" to="1284835491" departPos="188.13" arrivalPos="322.23"/>
    <trip id="r45" depart="16.96" from="163053437#0" to="116432101" departPos="259.00" arrivalPos="11.22"/>
    <trip id="r46" depart="16.96" from="163053438#0" to="163053437#12" departPos="3.46" arrivalPos="2.39"/>
    <trip id="r47" depart="17.16" from="116436710#1" to="116432101" departPos="266.90" arrivalPos="84.46"/>
    <trip id="r48" depart="17.39" from="1284835492#0" to="116436710#1" departPos="12.43" arrivalPos="204.19"/>
    <trip id="r49" depart="18.32" from="816200777#2" to="163053438#1" departPos="19.04" arrivalPos="54.84"/>
    <trip id="r50" depart="18.75" from="709788192#0" to="816200777#2" departPos="190.02" arrivalPos="172.68"/>
    <trip id="r51" depart="19.50" from="1284835491" to="116436710#1" departPos="316.45" arrivalPos="367.00"/>
    <trip id="r52" depart="19.56" from="116436710#1" to="1012665669#0" departPos="168.00" arrivalPos="276.24"/>
    <trip id="r53" depart="19.91" from="163053437#0" to="116432101#0.343" departPos="204.68" arrivalPos="88.35"/>
    <trip id="r54" depart="20.37" from="116436710#1" to="1012665669#0" departPos="364.57" arrivalPos="38.69"/>
    <trip id="r55" depart="20.95" from="1284835491" to="1284835491" departPos="35.24" arrivalPos="228.43"/>
    <trip id="r56" depart="21.34" from="163053437#0" to="709788192#0" departPos="220.53" arrivalPos="206.55"/>
    <trip id="r57" depart="21.66" from="816200777#2" to="816200777#2" departPos="104.77" arrivalPos="79.56"/>
    <trip id="r58" depart="21.84" from="709788186#0" to="709788186#0" departPos="83.23" arrivalPos="94.45"/>
    <trip id="r59" depart="22.81" from="163053437#0" to="709788186#0" departPos="408.06" arrivalPos="24.95"/>
    <trip id="r60" depart="23.56" from="163053438#1" to="816200777#2" departPos="201.07" arrivalPos="290.35"/>
    <trip id="r61" depart="24.98" from="106042137" to="709788186#0" departPos="24.75" arrivalPos="134.99"/>
    <trip id="r62" depart="25.68" from="163053437#0" to="709788186#0" departPos="264.26" arrivalPos="37.89"/>
    <trip id="r63" depart="25.75" from="163053437#0" to="1284835491" departPos="403.98" arrivalPos="84.65"/>
    <trip id="r64" depart="26.12" from="116432101" to="1012665669#0" departPos="117.69" arrivalPos="22.63"/>
    <trip id="r65" depart="26.28" from="709788186#0" to="709788186#0" departPos="58.75" arrivalPos="235.69"/>
    <trip id="r66" depart="26.57" from="163053426" to="1012665669#0" departPos="110.23" arrivalPos="399.58"/>
    <trip id="r67" depart="26.63" from="-163053426#8" to="116436710#1" departPos="43.98" arrivalPos="341.88"/>
    <trip id="r68" depart="27.66" from="106042137#3" to="1012665669#0" departPos="35.89" arrivalPos="107.88"/>
    <trip id="r69" depart="27.88" from="177776815#0" to="116432101" departPos="9.63" arrivalPos="116.18"/>
    <trip id="r70" depart="28.65" from="709788192#0" to="816200777#2" departPos="196.90" arrivalPos="249.12"/>
    <trip id="r71" depart="28.82" from="1284835491" to="116436710#1" departPos="58.26" arrivalPos="207.35"/>
    <trip id="r72" depart="29.38" from="163053438#1" to="709788192#0" departPos="76.22" arrivalPos="20.83"/>
    <trip id="r73" depart="29.48" from="116432101#0.21" to="816200777#2" departPos="25.76" arrivalPos="92.07"/>
    <trip id="r74" depart="29.92" from="816200777#2" to="1284835491" departPos="16.01" arrivalPos="469.20"/>
    <trip id="r75" depart="31.17" from="106042137" to="116432101#0.21" departPos="107.29" arrivalPos="59.40"/>
    <trip id="r76" depart="32.12" from="163053437#0" to="1115510434#0" departPos="345.90" arrivalPos="7.07"/>
    <trip id="r77" depart="33.17" from="-1240199913#1" to="163053438#1" departPos="3.53" arrivalPos="457.93"/>
    <trip id="r78" depart="33.17" from="116432101" to="1012665669#0" departPos="121.91" arrivalPos="301.28"/>
    <trip id="r79" depart="35.69" from="116432101#0.343" to="1115510434#0" departPos="72.60" arrivalPos="8.16"/>
    <trip id="r80" depart="35.87" from="106042137" to="1284835491" departPos="161.36" arrivalPos="374.75"/>
    <trip id="r81" depart="35.91" from="-1240199913#1" to="709788192#0" departPos="4.82" arrivalPos="158.05"/>
    <trip id="r82" depart="36.07" from="116436710#1" to="1012665669#0" departPos="117.79" arrivalPos="106.08"/>
    <trip id="r83" depart="36.71" from="1012665669#0" to="106042137" departPos="170.43" arrivalPos="153.48"/>
    <trip id="r84" depart="36.87" from="116432101#0.343" to="163053438#1" departPos="70.95" arrivalPos="14.52"/>
    <trip id="r85" depart="37.79" from="106042137" to="116436710#1" departPos="143.33" arrivalPos="187.87"/>
    <trip id="r86" depart="37.94" from="1284835491" to="106042137#3.336" departPos="264.57" arrivalPos="39.16"/>
    <trip id="r87" depart="38.15" from="1012665669#0" to="816200777#2" departPos="142.22" arrivalPos="61.70"/>
    <trip id="r88" depart="38.85" from="163053437#0" to="163053426#6" departPos="431.99" arrivalPos="107.36"/>
    <trip id="r89" depart="39.24" from="163053437#0" to="116432101#0.21" departPos="132.65" arrivalPos="15.25"/>
    <trip id="r90" depart="39.49" from="816200777#2" to="116436710#1" departPos="23.52" arrivalPos="61.48"/>
    <trip id="r91" depart="39.97" from="709788186#0" to="709788186#0" departPos="193.63" arrivalPos="39.89"/>
    <trip id="r92" depart="40.18" from="709788192#0" to="106042137" departPos="50.09" arrivalPos="90.14"/>
    <trip id="r93" depart="40.38" from="163053437#0" to="1284835491" departPos="4.82" arrivalPos="189.58"/>
    <trip id="r94" depart="40.63" from="163053437#0" to="709788192#0" departPos="262.02" arrivalPos="51.07"/>
    <trip id="r95" depart="40.74" from="1012665669#0" to="106042137#3" departPos="143.49" arrivalPos="93.37"/>
    <trip id="r96" depart="40.91" from="116436710#1" to="1012665669#0" departPos="252.85" arrivalPos="268.98"/>
    <trip id="r97" depart="41.19" from="-163053426#8" to="709788186#0" departPos="74.34" arrivalPos="142.10"/>
    <trip id="r98" depart="41.45" from="816200777#2" to="709788186#0" departPos="311.60" arrivalPos="30.83"/>
    <trip id="r99" depart="41.52" from="709788186#0" to="116436710#1" departPos="178.51" arrivalPos="26.46"/>
    <trip id="r100" depart="41.63" from="-402098503" to="816200777#2" departPos="74.74" arrivalPos="88.01"/>
    <trip id="r101" depart="42.38" from="1012665669#0" to="709788184#0" departPos="247.39" arrivalPos="13.49"/>
    <trip id="r102" depart="42.43" from="709788186#0" to="163053438#1" departPos="250.67" arrivalPos="526.09"/>
    <trip id="r103" depart="42.49" from="163053438#1" to="163053438#1" departPos="80.60" arrivalPos="345.00"/>
    <trip id="r104" depart="42.77" from="1284835491" to="402098503" departPos="132.43" arrivalPos="6.51"/>
    <trip id="r105" depart="42.90" from="1012665669#0" to="816200777#2" departPos="392.09" arrivalPos="290.09"/>
    <trip id="r106" depart="44.42" from="816200777#2" to="1012665669#0" departPos="227.55" arrivalPos="163.04"/>
    <trip id="r107" depart="44.47" from="116432101#0.21" to="1012665669#0" departPos="57.57" arrivalPos="10.45"/>
    <trip id="r108" depart="44.94" from="116432101#0.21" to="163053438#1" departPos="48.67" arrivalPos="457.71"/>
    <trip id="r109" depart="45.19" from="116436710#1" to="1284835491" departPos="135.44" arrivalPos="486.67"/>
    <trip id="r110" depart="45.20" from="116432101" to="1115710778#0" departPos="106.35" arrivalPos="1.26"/>
    <trip id="r111" depart="45.77" from="163053437#0" to="709788192#0" departPos="4.70" arrivalPos="89.33"/>
    <trip id="r112" depart="46.04" from="1012665669#0.425" to="816200777#2" departPos="2.40" arrivalPos="265.32"/>
    <trip id="r113" depart="46.88" from="116432101" to="1284835491" departPos="49.63" arrivalPos="43.69"/>
    <trip id="r114" depart="47.26" from="709788192#0" to="106042137" departPos="103.35" arrivalPos="68.67"/>
    <trip id="r115" depart="48.07" from="1012665669#0" to="1284835491" departPos="302.79" arrivalPos="155.44"/>
    <trip id="r116" depart="48.46" from="709788186#0" to="116432101" departPos="129.45" arrivalPos="143.04"/>
    <trip id="r117" depart="48.56" from="1012665669#0" to="1284835491" departPos="329.95" arrivalPos="346.40"/>
    <trip id="r118" depart="48.58" from="116436710#1" to="-402098503#1" departPos="181.94" arrivalPos="17.18"/>
    <trip id="r119" depart="48.58" from="1012665669#0.425" to="402098503" departPos="15.69" arrivalPos="87.11"/>
    <trip id="r120" depart="49.17" from="163053438#1" to="816200777#2" departPos="421.76" arrivalPos="101.50"/>
    <trip id="r121" depart="49.94" from="116432101#0.21" to="1284835491" departPos="85.63" arrivalPos="481.34"/>
    <trip id="r122" depart="50.28" from="116436710#1" to="1284835491" departPos="49.28" arrivalPos="83.28"/>
    <trip id="r123" depart="50.51" from="816200777#2" to="116432101" departPos="164.40" arrivalPos="55.31"/>
    <trip id="r124" depart="50.52" from="1284835491" to="1284835491" departPos="108.53" arrivalPos="235.10"/>
    <trip id="r125" depart="51.71" from="1012665669#0" to="709788186#0" departPos="397.72" arrivalPos="216.52"/>
    <trip id="r126" depart="52.43" from="116432665#2" to="106042137#1" departPos="2.07" arrivalPos="5.04"/>
    <trip id="r127" depart="52.87" from="116436710#1" to="709788192#0" departPos="29.35" arrivalPos="63.70"/>
    <trip id="r128" depart="53.01" from="1284835491" to="116436710#1" departPos="277.73" arrivalPos="225.22"/>
    <trip id="r129" depart="53.07" from="163053438#1" to="1284835491" departPos="312.39" arrivalPos="7.31"/>
    <trip id="r130" depart="53.34" from="1284835491" to="177776815#0" departPos="467.39" arrivalPos="13.97"/>
    <trip id="r131" depart="53.50" from="1284835491" to="1284835492#0" departPos="103.51" arrivalPos="5.69"/>
    <trip id="r132" depart="53.72" from="816200777#2" to="709788192#0" departPos="96.14" arrivalPos="147.55"/>
    <trip id="r133" depart="55.01" from="116436710#1" to="1284835491" departPos="30.38" arrivalPos="250.80"/>
    <trip id="r134" depart="55.69" from="163053437#0" to="816200777#2" departPos="332.88" arrivalPos="20.41"/>
    <trip id="r135" depart="57.08" from="116432101" to="-163053426" departPos="93.58" arrivalPos="118.62"/>
    <trip id="r136" depart="57.11" from="709788192#0" to="1284835491" departPos="192.55" arrivalPos="353.34"/>
    <trip id="r137" depart="57.99" from="163053438#1" to="106042137#3" departPos="326.87" arrivalPos="64.84"/>
    <trip id="r138" depart="58.93" from="116432101#0.21" to="1284835491" departPos="26.99" arrivalPos="447.93"/>
    <trip id="r139" depart="59.63" from="1012665669#0" to="816200777#2" departPos="161.04" arrivalPos="94.09"/>
    <trip id="r140" depart="59.97" from="106042137" to="116436710#1" departPos="57.74" arrivalPos="234.16"/>
    <trip id="r141" depart="60.43" from="816200777#2" to="116432101#0.21" departPos="372.11" arrivalPos="51.70"/>
    <trip id="r142" depart="60.46" from="709788192#0" to="816200777#2" departPos="19.17" arrivalPos="224.43"/>
    <trip id="r143" depart="61.78" from="163053437#0" to="709788186#0" departPos="499.21" arrivalPos="242.73"/>
    <trip id="r144" depart="62.71" from="116432101#0.21" to="709788186#0" departPos="16.29" arrivalPos="87.36"/>
    <trip id="r145" depart="63.51" from="116432101#0.343" to="816200777#2" departPos="37.40" arrivalPos="354.67"/>
    <trip id="r146" depart="63.76" from="816200777#2" to="816200777#2" departPos="398.98" arrivalPos="63.31"/>
    <trip id="r147" depart="63.96" from="709788186#0" to="816200777#2" departPos="168.73" arrivalPos="20.98"/>
    <trip id="r148" depart="64.85" from="709788192#0" to="106042137#3" departPos="188.47" arrivalPos="76.72"/>
    <trip id="r149" depart="65.25" from="1284835491" to="1284835491" departPos="349.89" arrivalPos="319.31"/>
    <trip id="r150" depart="65.55" from="1115710778#0" to="106042137" departPos="3.81" arrivalPos="29.53"/>
    <trip id="r151" depart="66.02" from="816200777#2" to="163053438#1" departPos="117.67" arrivalPos="419.21"/>
    <trip id="r152" depart="66.82" from="163053437#0" to="816200777#2" departPos="228.70" arrivalPos="381.54"/>
    <trip id="r153" depart="66.82" from="1284835491" to="709788186#0" departPos="90.76" arrivalPos="237.41"/>
    <trip id="r154" depart="66.89" from="709788194#1" to="816200777#2" departPos="2.06" arrivalPos="210.94"/>
    <trip id="r155" depart="67.02" from="816200777#2" to="1012665669#0" departPos="457.46" arrivalPos="131.27"/>
    <trip id="r156" depart="67.47" from="116436710#1" to="163053438#1" departPos="55.00" arrivalPos="482.15"/>
    <trip id="r157" depart="67.60" from="1284835491" to="1284835491" departPos="5.15" arrivalPos="133.13"/>
    <trip id="r158" depart="68.18" from="816200777#2" to="116432101#0.343" departPos="349.96" arrivalPos="87.19"/>
    <trip id="r159" depart="69.09" from="116432101#0.21" to="106042137#3.336" departPos="89.11" arrivalPos="81.41"/>
    <trip id="r160" depart="70.78" from="1284835491" to="402098503" departPos="151.70" arrivalPos="159.30"/>
    <trip id="r161" depart="71.47" from="816200777#2" to="116432101#0.21" departPos="300.71" arrivalPos="50.06"/>
    <trip id="r162" depart="71.53" from="816200777#2" to="106042137" departPos="22.88" arrivalPos="141.52"/>
    <trip id="r163" depart="72.00" from="709788186#0" to="1284835491" departPos="19.33" arrivalPos="19.68"/>
    <trip id="r164" depart="72.37" from="-1012665672#1" to="1115710778#0" departPos="1.25" arrivalPos="23.89"/>
    <trip id="r165" depart="72.52" from="1284835491" to="1012665669#0" departPos="340.29" arrivalPos="158.84"/>
    <trip id="r166" depart="73.67" from="1284835491" to="116432665#2" departPos="184.47" arrivalPos="3.41"/>
    <trip id="r167" depart="73.73" from="163053438#1" to="116436710#1" departPos="69.90" arrivalPos="189.40"/>
    <trip id="r168" depart="74.13" from="816200777#2" to="1012665669#0.425" departPos="62.47" arrivalPos="5.96"/>
    <trip id="r169" depart="75.18" from="402098503#1" to="709788186#0" departPos="89.85" arrivalPos="218.71"/>
    <trip id="r170" depart="75.36" from="816200777#2" to="816200777#2" departPos="344.83" arrivalPos="30.90"/>
    <trip id="r171" depart="75.58" from="1012665669#0" to="1284835491" departPos="53.16" arrivalPos="49.70"/>
    <trip id="r172" depart="75.94" from="163053437#0" to="709788186#0" departPos="305.04" arrivalPos="99.00"/>
    <trip id="r173" depart="76.02" from="816200777#2" to="709788192#0" departPos="435.15" arrivalPos="26.55"/>
    <trip id="r174" depart="76.43" from="163053438#1" to="709788186#0" departPos="476.28" arrivalPos="189.24"/>
    <trip id="r175" depart="76.54" from="116436710#1" to="1284835491" departPos="26.69" arrivalPos="373.19"/>
    <trip id="r176" depart="76.57" from="163053437#0" to="1284835491" departPos="102.62" arrivalPos="72.57"/>
    <trip id="r177" depart="76.63" from="1284835491" to="816200777#2" departPos="264.30" arrivalPos="320.06"/>
    <trip id="r178" depart="76.68" from="816200777#2" to="1012665669#0" departPos="265.69" arrivalPos="100.86"/>
    <trip id="r179" depart="76.70" from="1284835491" to="106042137#3" departPos="57.96" arrivalPos="58.62"/>
    <trip id="r180" depart="77.31" from="163053437#0" to="709788192#0" departPos="458.36" arrivalPos="190.78"/>
    <trip id="r181" depart="77.33" from="163053438#1" to="106042137#3" departPos="515.38" arrivalPos="37.45"/>
    <trip id="r182" depart="77.38" from="709788194#1" to="1284835491" departPos="16.08" arrivalPos="93.89"/>
    <trip id="r183" depart="77.47" from="116436710#1" to="709788192#0" departPos="85.70" arrivalPos="108.96"/>
    <trip id="r184" depart="77.92" from="1012665669#0" to="816200777#2" departPos="396.68" arrivalPos="16.33"/>
    <trip id="r185" depart="78.18" from="816200777#2" to="816200777#2" departPos="32.69" arrivalPos="332.75"/>
    <trip id="r186" depart="79.57" from="816200777#2" to="163053438#1" departPos="365.46" arrivalPos="462.08"/>
    <trip id="r187" depart="79.75" from="-402098503" to="163053438#1" departPos="134.91" arrivalPos="151.85"/>
    <trip id="r188" depart="79.85" from="116436710#1" to="1284835491" departPos="158.29" arrivalPos="97.11"/>
    <trip id="r189" depart="80.04" from="1012665669#0" to="816200777#2" departPos="143.79" arrivalPos="127.54"/>
    <trip id="r190" depart="80.04" from="106042137" to="1012665669#0" departPos="42.00" arrivalPos="142.39"/>
    <trip id="r191" depart="80.39" from="116436710#1" to="816200777#2" departPos="31.11" arrivalPos="58.21"/>
    <trip id="r192" depart="81.29" from="-1240199913#1" to="163053438#1" departPos="2.71" arrivalPos="75.31"/>
    <trip id="r193" depart="81.31" from="163053438#1" to="116432101#0.21" departPos="448.51" arrivalPos="60.76"/>
    <trip id="r194" depart="81.53" from="709788194#1" to="1284835491" departPos="16.75" arrivalPos="4.38"/>
    <trip id="r195" depart="81.83" from="1012665669#0" to="1284835491" departPos="414.42" arrivalPos="244.09"/>
    <trip id="r196" depart="82.45" from="1284835491" to="1012665669#0.425" departPos="4.67" arrivalPos="4.54"/>
    <trip id="r197" depart="83.33" from="709788186#0" to="1284835491" departPos="118.58" arrivalPos="12.13"/>
    <trip id="r198" depart="84.16" from="1284835491" to="402098503" departPos="58.88" arrivalPos="130.88"/>
    <trip id="r199" depart="84.27" from="116432101#0.343" to="1284835491" departPos="41.29" arrivalPos="473.88"/>
    <trip id="r200" depart="84.40" from="1284835491" to="163053438#1" departPos="149.57" arrivalPos="360.64"/>
    <trip id="r201" depart="85.42" from="1012665669#0" to="816200777#2" departPos="398.82" arrivalPos="373.18"/>
    <trip id="r202" depart="86.35" from="106042137" to="709788192#0" departPos="116.78" arrivalPos="172.68"/>
    <trip id="r203" depart="86.41" from="1284835491" to="709788186#0" departPos="222.32" arrivalPos="178.63"/>
    <trip id="r204" depart="86.45" from="163053437#0" to="1284835491" departPos="50.44" arrivalPos="208.11"/>
    <trip id="r205" depart="86.69" from="709788186#0" to="116436710#1" departPos="85.42" arrivalPos="197.56"/>
    <trip id="r206" depart="86.80" from="163053438#1" to="116436710#1" departPos="240.01" arrivalPos="191.36"/>
    <trip id="r207" depart="86.91" from="816200777#2" to="709788186#0" departPos="362.80" arrivalPos="82.71"/>
    <trip id="r208" depart="87.28" from="816200777#2" to="1284835491" departPos="3.19" arrivalPos="409.69"/>
    <trip id="r209" depart="88.22" from="1284835491" to="106042137#3" departPos="360.44" arrivalPos="29.20"/>
    <trip id="r210" depart="88.47" from="116432101#0.343" to="816200777#2" departPos="53.20" arrivalPos="74.42"/>
    <trip id="r211" depart="88.49" from="1284835491" to="116432101" departPos="302.09" arrivalPos="103.71"/>
    <trip id="r212" depart="89.06" from="163053437#0" to="709788192#0" departPos="370.20" arrivalPos="152.43"/>
    <trip id="r213" depart="89.19" from="116432101" to="163053426#6" departPos="76.81" arrivalPos="53.05"/>
    <trip id="r214" depart="89.26" from="163053438#1" to="163053438#15" departPos="195.90" arrivalPos="27.70"/>
    <trip id="r215" depart="89.39" from="816200777#2" to="163053437#12" departPos="72.39" arrivalPos="12.91"/>
    <trip id="r216" depart="90.23" from="106042137" to="163053438#1" departPos="158.31" arrivalPos="138.37"/>
    <trip id="r217" depart="90.42" from="116432101" to="709788192#0" departPos="6.95" arrivalPos="41.17"/>
    <trip id="r218" depart="90.46" from="106042137#3" to="116436710#1" departPos="67.23" arrivalPos="248.29"/>
    <trip id="r219" depart="90.48" from="163053438#1" to="116432101#0.343" departPos="78.87" arrivalPos="34.40"/>
    <trip id="r220" depart="92.47" from="163053438#1" to="709788186#0" departPos="212.64" arrivalPos="146.24"/>
    <trip id="r221" depart="92.94" from="163053438#1" to="163053438#1" departPos="428.90" arrivalPos="383.22"/>
    <trip id="r222" depart="93.12" from="402098503#1" to="1284835491" departPos="65.38" arrivalPos="402.72"/>
    <trip id="r223" depart="94.50" from="1012665669#0" to="816200777#2" departPos="27.12" arrivalPos="398.70"/>
    <trip id="r224" depart="94.51" from="163053438#1" to="1284835492#0" departPos="289.59" arrivalPos="15.43"/>
    <trip id="r225" depart="95.44" from="116432101" to="1284835491" departPos="128.89" arrivalPos="106.39"/>
    <trip id="r226" depart="95.84" from="163053437#0" to="816200777#2" departPos="213.00" arrivalPos="225.27"/>
    <trip id="r227" depart="96.52" from="1284835491" to="1012665669#0" departPos="134.59" arrivalPos="122.09"/>
    <trip id="r228" depart="97.58" from="709788190#1" to="116432101" departPos="4.56" arrivalPos="138.14"/>
    <trip id="r229" depart="98.40" from="816200777#2" to="1284835491" departPos="87.82" arrivalPos="85.78"/>
    <trip id="r230" depart="98.63" from="163053437#0" to="116436710#1" departPos="426.06" arrivalPos="202.58"/>
    <trip id="r231" depart="99.10" from="163053437#0" to="116432101#0.21" departPos="532.78" arrivalPos="6.49"/>
    <trip id="r232" depart="99.52" from="163053437#0" to="106042137#3" departPos="79.10" arrivalPos="72.17"/>
    <trip id="r233" depart="99.72" from="163053426" to="709788186#0" departPos="120.85" arrivalPos="235.70"/>
    <trip id="r234" depart="100.71" from="816200777#2" to="163053438#1" departPos="390.67" arrivalPos="463.66"/>
    <trip id="r235" depart="100.74" from="709788186#0" to="1284835491" departPos="93.13" arrivalPos="4.35"/>
    <trip id="r236" depart="100.92" from="106042137#3" to="1284835491" departPos="66.60" arrivalPos="354.35"/>
    <trip id="r237" depart="101.06" from="709788192#0" to="116432101" departPos="128.96" arrivalPos="34.49"/>
    <trip id="r238" depart="102.20" from="1284835491" to="-402098503#1" departPos="156.67" arrivalPos="127.33"/>
    <trip id="r239" depart="102.20" from="116432665#2" to="816200777#2" departPos="1.83" arrivalPos="117.58"/>
    <trip id="r240" depart="102.71" from="1284835491" to="163053438#1" departPos="27.32" arrivalPos="307.44"/>
    <trip id="r241" depart="103.47" from="116436710#1" to="816200777#2" departPos="199.77" arrivalPos="24.94"/>
    <trip id="r242" depart="104.40" from="816200777#2" to="1012665669#0" departPos="145.81" arrivalPos="151.18"/>
    <trip id="r243" depart="104.73" from="1012665669#0" to="709788192#0" departPos="419.31" arrivalPos="62.96"/>
    <trip id="r244" depart="104.79" from="106042137" to="1284835491" departPos="25.14" arrivalPos="478.09"/>
    <trip id="r245" depart="104.92" from="816200777#2" to="116432101#0.343" departPos="52.36" arrivalPos="56.69"/>
    <trip id="r246" depart="105.08" from="116436710#1" to="709788184#0" departPos="407.97" arrivalPos="16.19"/>
    <trip id="r247" depart="105.71" from="163053438#1" to="1115710778#0" departPos="183.36" arrivalPos="21.85"/>
    <trip id="r248" depart="105.80" from="816200777#2" to="116436710#1" departPos="97.16" arrivalPos="352.25"/>
    <trip id="r249" depart="106.82" from="163053437#0" to="1284835491" departPos="227.81" arrivalPos="202.25"/>
    <trip id="r250" depart="106.89" from="163053437#0" to="163053438#1" departPos="396.13" arrivalPos="162.52"/>
    <trip id="r251" depart="106.92" from="163053438#1" to="1284835491" departPos="382.55" arrivalPos="305.33"/>
    <trip id="r252" depart="107.61" from="116432101#0.343" to="1012665669#0" departPos="63.39" arrivalPos="273.18"/>
    <trip id="r253" depart="107.73" from="1284835491" to="709788186#0" departPos="129.98" arrivalPos="201.74"/>
    <trip id="r254" depart="108.20" from="816200777#2" to="1284835491" departPos="86.62" arrivalPos="172.03"/>
    <trip id="r255" depart="108.51" from="816200777#2" to="816200777#2" departPos="422.05" arrivalPos="400.96"/>
    <trip id="r256" depart="109.31" from="163053437#0" to="116432101" departPos="87.38" arrivalPos="44.45"/>
    <trip id="r257" depart="109.43" from="163053438#1" to="106042137" departPos="76.06" arrivalPos="112.19"/>
    <trip id="r258" depart="110.04" from="1284835491" to="163053438#1" departPos="41.86" arrivalPos="152.11"/>
    <trip id="r259" depart="110.45" from="816200777#2" to="709788192#0" departPos="195.02" arrivalPos="147.75"/>
    <trip id="r260" depart="110.83" from="-163053426#8" to="1012665669#0" departPos="93.56" arrivalPos="56.70"/>
    <trip id="r261" depart="111.00" from="816200777#2" to="816200777#2" departPos="455.84" arrivalPos="450.00"/>