<?xml version="1.0" encoding="UTF-8"?>

<!-- generated on 2025-12-01 13:51:43 by Eclipse SUMO netedit Version 1.22.0
<neteditConfiguration xmlns:xsi="http://www.w3.org/2001/XMLSchema-instance" xsi:noNamespaceSchemaLocation="http://sumo.dlr.de/xsd/neteditConfiguration.xsd">

    <input>
        <sumocfg-file value="C:\ITS\TrafficLightControl\Project\trafficlight-algorithm\data\caugiay\fixed_usecase\caugiay.sumocfg"/>
        <additional-files value="C:\ITS\TrafficLightControl\Project\trafficlight-algorithm\data\caugiay\fixed_usecase\caugiay.add.xml"/>
        <route-files value="C:\ITS\TrafficLightControl\Project\trafficlight-algorithm\data\caugiay\fixed_usecase\caugiay.rou.xml"/>
        <sumo-net-file value="C:\ITS\TrafficLightControl\Project\trafficlight-algorithm\data\caugiay\fixed_usecase\caugiay_lang_v2.net.xml"/>
    </input>

    <output>
        <output-file value="C:\ITS\TrafficLightControl\Project\trafficlight-algorithm\data\caugiay\fixed_usecase\caugiay_lang_v2.net.xml"/>
    </output>

    <processing>
        <geometry.min-radius.fix.railways value="false"/>
        <geometry.avoid-overlap value="0"/>
        <geometry.max-grade.fix value="false"/>
        <offset.disable-normalization value="true"/>
        <lefthand value="0"/>
    </processing>

    <junctions>
        <no-turnarounds value="true"/>
        <junctions.corner-detail value="5"/>
        <junctions.limit-turn-speed value="5.50"/>
        <rectangular-lane-cut value="0"/>
    </junctions>

    <pedestrian>
        <walkingareas value="0"/>
    </pedestrian>

</neteditConfiguration>
-->

<net version="1.20" junctionCornerDetail="5" limitTurnSpeed="5.50" avoidOverlap="0" xmlns:xsi="http://www.w3.org/2001/XMLSchema-instance" xsi:noNamespaceSchemaLocation="http://sumo.dlr.de/xsd/net_file.xsd">

    <location netOffset="-581155.35,-2324860.75" convBoundary="-566.24,-1550.84,3424.54,1827.31" origBoundary="105.781051,20.960406,105.813160,21.045988" projParameter="+proj=utm +zone=48 +ellps=WGS84 +datum=WGS84 +units=m +no_defs"/>

    <type id="highway.footway" priority="1" numLanes="1" speed="2.78" allow="pedestrian" oneway="1" width="2.00"/>
    <type id="highway.motorway" priority="14" numLanes="2" speed="39.44" allow="private emergency authority army vip passenger hov taxi bus coach delivery truck trailer motorcycle evehicle custom1 custom2" oneway="1"/>
    <type id="highway.primary" priority="12" numLanes="2" speed="27.78" disallow="tram rail_urban rail rail_electric rail_fast ship container cable_car subway aircraft wheelchair scooter drone" oneway="0"/>
    <type id="highway.primary_link" priority="7" numLanes="1" speed="22.22" disallow="tram rail_urban rail rail_electric rail_fast ship container cable_car subway aircraft wheelchair scooter drone" oneway="0"/>
    <type id="highway.residential" priority="3" numLanes="1" speed="13.89" disallow="tram rail_urban rail rail_electric rail_fast ship container cable_car subway aircraft wheelchair scooter drone" oneway="0"/>
    <type id="highway.secondary" priority="11" numLanes="1" speed="27.78" disallow="tram rail_urban rail rail_electric rail_fast ship container cable_car subway aircraft wheelchair scooter drone" oneway="0"/>
    <type id="highway.secondary_link" priority="6" numLanes="1" speed="22.22" disallow="tram rail_urban rail rail_electric rail_fast ship container cable_car subway aircraft wheelchair scooter drone" oneway="0"/>
    <type id="highway.service" priority="1" numLanes="1" speed="5.56" allow="pedestrian delivery bicycle" oneway="0"/>
    <type id="highway.tertiary" priority="10" numLanes="1" speed="22.22" disallow="tram rail_urban rail rail_electric rail_fast ship container cable_car subway aircraft wheelchair scooter drone" oneway="0"/>
    <type id="highway.trunk" priority="13" numLanes="2" speed="27.78" disallow="pedestrian bicycle tram rail_urban rail rail_electric rail_fast ship container cable_car subway aircraft wheelchair scooter drone" oneway="0"/>
    <type id="highway.trunk_link" priority="8" numLanes="1" speed="22.22" disallow="pedestrian bicycle tram rail_urban rail rail_electric rail_fast ship container cable_car subway aircraft wheelchair scooter drone" oneway="0"/>

    <edge id=":1_0" function="internal">
        <lane id=":1_0_0" index="0" disallow="tram rail_urban rail rail_electric rail_fast ship container cable_car subway aircraft wheelchair scooter drone" speed="11.03" length="31.90" shape="881.06,237.76 872.49,232.39 865.17,230.86 859.09,233.16 854.26,239.30"/>
    </edge>
    <edge id=":1_1" function="internal">
        <lane id=":1_1_0" index="0" disallow="tram rail_urban rail rail_electric rail_fast ship container cable_car subway aircraft wheelchair scooter drone" speed="13.89" length="55.11" width="3.32" shape="881.06,237.76 835.86,206.24"/>
    </edge>
    <edge id=":1_2" function="internal">
        <lane id=":1_2_0" index="0" disallow="tram rail_urban rail rail_electric rail_fast ship container cable_car subway aircraft wheelchair scooter drone" speed="15.22" length="5.84" shape="881.06,237.76 876.75,233.83"/>
    </edge>
    <edge id=":1_16" function="internal">
        <lane id=":1_16_0" index="0" disallow="tram rail_urban rail rail_electric rail_fast ship container cable_car subway aircraft wheelchair scooter drone" speed="15.22" length="41.61" shape="876.75,233.83 868.95,226.71 861.59,216.50 858.98,207.15 861.12,198.65"/>
    </edge>
    <edge id=":1_3" function="internal">
        <lane id=":1_3_0" index="0" disallow="tram rail_urban rail rail_electric rail_fast ship container cable_car subway aircraft wheelchair scooter drone" speed="12.78" length="34.35" width="3.32" shape="873.58,205.61 870.78,213.01 871.43,220.40 875.55,227.78 883.12,235.16"/>
    </edge>
    <edge id=":1_4" function="internal">
        <lane id=":1_4_0" index="0" disallow="tram rail_urban rail rail_electric rail_fast ship container cable_car subway aircraft wheelchair scooter drone" speed="27.78" length="38.93" shape="873.58,205.61 854.26,239.30"/>
        <lane id=":1_4_1" index="1" disallow="tram rail_urban rail rail_electric rail_fast ship container cable_car subway aircraft wheelchair scooter drone" speed="27.78" length="38.93" shape="870.78,204.05 851.42,237.82"/>
        <lane id=":1_4_2" index="2" disallow="tram rail_urban rail rail_electric rail_fast ship container cable_car subway aircraft wheelchair scooter drone" speed="27.78" length="38.93" shape="867.99,202.49 848.58,236.34"/>
    </edge>
    <edge id=":1_7" function="internal">
        <lane id=":1_7_0" index="0" disallow="tram rail_urban rail rail_electric rail_fast ship container cable_car subway aircraft wheelchair scooter drone" speed="12.51" length="38.79" width="3.32" shape="867.99,202.49 861.03,211.05 853.80,214.15 845.63,212.35 835.86,206.24"/>
    </edge>
    <edge id=":1_8" function="internal">
        <lane id=":1_8_0" index="0" disallow="tram rail_urban rail rail_electric rail_fast ship container cable_car subway aircraft wheelchair scooter drone" speed="9.52" length="22.56" shape="837.84,203.58 842.44,205.68 846.92,205.04 851.29,201.66 855.54,195.53"/>
    </edge>
    <edge id=":1_9" function="internal">
        <lane id=":1_9_0" index="0" disallow="tram rail_urban rail rail_electric rail_fast ship container cable_car subway aircraft wheelchair scooter drone" speed="13.89" length="55.20" width="3.32" shape="837.84,203.58 883.12,235.16"/>
    </edge>
    <edge id=":1_10" function="internal">
        <lane id=":1_10_0" index="0" disallow="tram rail_urban rail rail_electric rail_fast ship container cable_car subway aircraft wheelchair scooter drone" speed="13.65" length="5.37" shape="837.84,203.58 841.77,207.25"/>
    </edge>
    <edge id=":1_17" function="internal">
        <lane id=":1_17_0" index="0" disallow="tram rail_urban rail rail_electric rail_fast ship container cable_car subway aircraft wheelchair scooter drone" speed="13.65" length="32.61" shape="841.77,207.25 846.03,211.24 850.55,219.25 851.40,227.62 848.58,236.34"/>
    </edge>
    <edge id=":1_11" function="internal">
        <lane id=":1_11_0" index="0" disallow="tram rail_urban rail rail_electric rail_fast ship container cable_car subway aircraft wheelchair scooter drone" speed="11.13" length="26.03" width="3.32" shape="836.14,229.84 839.70,222.27 840.84,215.81 839.56,210.47 835.86,206.24"/>
    </edge>
    <edge id=":1_12" function="internal">
        <lane id=":1_12_0" index="0" disallow="tram rail_urban rail rail_electric rail_fast ship container cable_car subway aircraft wheelchair scooter drone" speed="27.78" length="39.32" shape="836.14,229.84 855.54,195.53"/>
        <lane id=":1_12_1" index="1" disallow="tram rail_urban rail rail_electric rail_fast ship container cable_car subway aircraft wheelchair scooter drone" speed="27.78" length="39.32" shape="838.98,231.32 858.33,197.09"/>
        <lane id=":1_12_2" index="2" disallow="tram rail_urban rail rail_electric rail_fast ship container cable_car subway aircraft wheelchair scooter drone" speed="27.78" length="39.32" shape="841.82,232.80 861.12,198.65"/>
    </edge>
    <edge id=":1_15" function="internal">
        <lane id=":1_15_0" index="0" disallow="tram rail_urban rail rail_electric rail_fast ship container cable_car subway aircraft wheelchair scooter drone" speed="13.79" length="48.92" width="3.32" shape="841.82,232.80 850.02,223.88 859.52,222.15 870.50,226.34 883.12,235.16"/>
    </edge>
    <edge id=":10180120742_0" function="internal">
        <lane id=":10180120742_0_0" index="0" disallow="tram rail_urban rail rail_electric rail_fast ship container cable_car subway aircraft wheelchair scooter drone" speed="27.78" length="4.44" width="3.50" shape="1813.79,172.19 1813.07,173.11 1812.62,173.76 1812.20,174.44 1811.63,175.45"/>
        <lane id=":10180120742_0_1" index="1" disallow="tram rail_urban rail rail_electric rail_fast ship container cable_car subway aircraft wheelchair scooter drone" speed="27.78" length="4.44" width="3.50" shape="1811.05,170.01 1810.24,171.05 1809.72,171.79 1809.25,172.56 1808.59,173.70"/>
        <lane id=":10180120742_0_2" index="2" disallow="tram rail_urban rail rail_electric rail_fast ship container cable_car subway aircraft wheelchair scooter drone" speed="27.78" length="4.44" width="3.50" shape="1808.31,167.83 1807.41,168.99 1806.82,169.81 1806.30,170.67 1805.56,171.95"/>
    </edge>
    <edge id=":10180120743_0" function="internal">
        <lane id=":10180120743_0_0" index="0" disallow="tram rail_urban rail rail_electric rail_fast ship container cable_car subway aircraft wheelchair scooter drone" speed="27.78" length="5.48" width="3.50" shape="1807.19,148.26 1808.27,146.92 1809.02,146.01 1809.82,145.14 1811.00,143.90"/>
        <lane id=":10180120743_0_1" index="1" disallow="tram rail_urban rail rail_electric rail_fast ship container cable_car subway aircraft wheelchair scooter drone" speed="27.78" length="5.48" width="3.50" shape="1809.93,150.44 1810.94,149.17 1811.66,148.32 1812.41,147.50 1813.53,146.32"/>
        <lane id=":10180120743_0_2" index="2" disallow="tram rail_urban rail rail_electric rail_fast ship container cable_car subway aircraft wheelchair scooter drone" speed="27.78" length="5.48" width="3.50" shape="1812.66,152.62 1813.62,151.43 1814.29,150.62 1815.00,149.85 1816.06,148.74"/>
    </edge>
    <edge id=":10180120744_0" function="internal">
        <lane id=":10180120744_0_0" index="0" disallow="tram rail_urban rail rail_electric rail_fast ship container cable_car subway aircraft wheelchair scooter drone" speed="27.78" length="4.33" width="3.50" shape="1825.41,157.99 1824.59,158.80 1824.04,159.37 1823.53,159.97 1822.81,160.87"/>
        <lane id=":10180120744_0_1" index="1" disallow="tram rail_urban rail rail_electric rail_fast ship container cable_car subway aircraft wheelchair scooter drone" speed="27.78" length="4.33" width="3.50" shape="1822.97,155.48 1822.05,156.38 1821.44,157.02 1820.87,157.69 1820.07,158.70"/>
        <lane id=":10180120744_0_2" index="2" disallow="tram rail_urban rail rail_electric rail_fast ship container cable_car subway aircraft wheelchair scooter drone" speed="27.78" length="4.33" width="3.50" shape="1820.53,152.97 1819.52,153.97 1818.84,154.67 1818.22,155.41 1817.33,156.52"/>
    </edge>
    <edge id=":10180120746_0" function="internal">
        <lane id=":10180120746_0_0" index="0" disallow="tram rail_urban rail rail_electric rail_fast ship container cable_car subway aircraft wheelchair scooter drone" speed="27.78" length="3.41" width="3.50" shape="1794.96,165.79 1796.71,162.81"/>
        <lane id=":10180120746_0_1" index="1" disallow="tram rail_urban rail rail_electric rail_fast ship container cable_car subway aircraft wheelchair scooter drone" speed="27.78" length="3.41" width="3.50" shape="1797.98,167.55 1799.71,164.62"/>
        <lane id=":10180120746_0_2" index="2" disallow="tram rail_urban rail rail_electric rail_fast ship container cable_car subway aircraft wheelchair scooter drone" speed="27.78" length="3.41" width="3.50" shape="1801.00,169.32 1802.71,166.42"/>
    </edge>
    <edge id=":10180120750_0" function="internal">
        <lane id=":10180120750_0_0" index="0" disallow="tram rail_urban rail rail_electric rail_fast ship container cable_car subway aircraft wheelchair scooter drone" speed="27.78" length="1.93" width="3.50" shape="2488.57,-758.92 2489.82,-760.19"/>
        <lane id=":10180120750_0_1" index="1" disallow="tram rail_urban rail rail_electric rail_fast ship container cable_car subway aircraft wheelchair scooter drone" speed="27.78" length="1.93" width="3.50" shape="2486.10,-761.40 2487.46,-762.77"/>
        <lane id=":10180120750_0_2" index="2" disallow="tram rail_urban rail rail_electric rail_fast ship container cable_car subway aircraft wheelchair scooter drone" speed="27.78" length="1.93" width="3.50" shape="2483.62,-763.87 2485.09,-765.35"/>
    </edge>
    <edge id=":10180671333_0" function="internal">
        <lane id=":10180671333_0_0" index="0" disallow="tram rail_urban rail rail_electric rail_fast ship container cable_car subway aircraft wheelchair scooter drone" speed="16.07" length="15.64" width="5.00" shape="2521.93,-739.07 2517.78,-741.42 2514.09,-742.03 2510.58,-741.82 2506.97,-741.71"/>
    </edge>
    <edge id=":10180671333_1" function="internal">
        <lane id=":10180671333_1_0" index="0" disallow="tram rail_urban rail rail_electric rail_fast ship container cable_car subway aircraft wheelchair scooter drone" speed="27.78" length="15.12" shape="2521.93,-739.07 2518.11,-741.50 2515.12,-742.60 2512.17,-743.74 2508.45,-746.30"/>
        <lane id=":10180671333_1_1" index="1" disallow="tram rail_urban rail rail_electric rail_fast ship container cable_car subway aircraft wheelchair scooter drone" speed="27.78" length="15.12" shape="2521.93,-739.07 2510.52,-748.73"/>
        <lane id=":10180671333_1_2" index="2" disallow="tram rail_urban rail rail_electric rail_fast ship container cable_car subway aircraft wheelchair scooter drone" speed="27.78" length="15.12" shape="2523.92,-741.57 2512.60,-751.17"/>
        <lane id=":10180671333_1_3" index="3" disallow="tram rail_urban rail rail_electric rail_fast ship container cable_car subway aircraft wheelchair scooter drone" speed="27.78" length="15.12" shape="2523.92,-741.57 2520.78,-744.75 2519.23,-747.51 2517.72,-750.31 2514.68,-753.60"/>
    </edge>
    <edge id=":10202001771_0" function="internal">
        <lane id=":10202001771_0_0" index="0" disallow="tram rail_urban rail rail_electric rail_fast ship container cable_car subway aircraft wheelchair scooter drone" speed="27.78" length="0.34" width="3.75" shape="471.87,-320.50 472.25,-320.21"/>
        <lane id=":10202001771_0_1" index="1" disallow="tram rail_urban rail rail_electric rail_fast ship container cable_car subway aircraft wheelchair scooter drone" speed="27.78" length="0.34" width="3.75" shape="469.65,-317.47 469.96,-317.24"/>
        <lane id=":10202001771_0_2" index="2" disallow="tram rail_urban rail rail_electric rail_fast ship container cable_car subway aircraft wheelchair scooter drone" speed="27.78" length="0.34" width="3.75" shape="467.43,-314.45 467.67,-314.27"/>
        <lane id=":10202001771_0_3" index="3" disallow="tram rail_urban rail rail_electric rail_fast ship container cable_car subway aircraft wheelchair scooter drone" speed="27.78" length="0.34" width="3.75" shape="465.21,-311.43 465.38,-311.30"/>
    </edge>
    <edge id=":10202001781_0" function="internal">
        <lane id=":10202001781_0_0" index="0" disallow="tram rail_urban rail rail_electric rail_fast ship container cable_car subway aircraft wheelchair scooter drone" speed="12.34" length="17.41" width="3.75" shape="527.11,-287.36 527.71,-283.01 528.93,-279.29 530.75,-276.19 533.19,-273.73"/>
        <lane id=":10202001781_0_1" index="1" disallow="tram rail_urban rail rail_electric rail_fast ship container cable_car subway aircraft wheelchair scooter drone" speed="13.05" length="17.41" width="3.75" shape="527.11,-287.36 527.69,-280.94 528.51,-276.04 529.57,-272.65 530.88,-270.78"/>
        <lane id=":10202001781_0_2" index="2" disallow="tram rail_urban rail rail_electric rail_fast ship container cable_car subway aircraft wheelchair scooter drone" speed="13.88" length="17.41" width="3.75" shape="527.11,-287.36 527.25,-283.98 527.57,-277.45 528.02,-271.00 528.57,-267.83"/>
    </edge>
    <edge id=":10202001781_3" function="internal">
        <lane id=":10202001781_3_0" index="0" disallow="tram rail_urban rail rail_electric rail_fast ship container cable_car subway aircraft wheelchair scooter drone" speed="27.78" length="15.53" width="3.75" shape="520.60,-283.02 533.19,-273.73"/>
        <lane id=":10202001781_3_1" index="1" disallow="tram rail_urban rail rail_electric rail_fast ship container cable_car subway aircraft wheelchair scooter drone" speed="27.78" length="15.53" width="3.75" shape="518.35,-280.02 530.88,-270.78"/>
        <lane id=":10202001781_3_2" index="2" disallow="tram rail_urban rail rail_electric rail_fast ship container cable_car subway aircraft wheelchair scooter drone" speed="27.78" length="15.53" width="3.75" shape="516.10,-277.02 528.57,-267.83"/>
        <lane id=":10202001781_3_3" index="3" disallow="tram rail_urban rail rail_electric rail_fast ship container cable_car subway aircraft wheelchair scooter drone" speed="27.78" length="15.53" width="3.75" shape="513.85,-274.02 526.26,-264.87"/>
    </edge>
    <edge id=":10203920324_0" function="internal">
        <lane id=":10203920324_0_0" index="0" disallow="tram rail_urban rail rail_electric rail_fast ship container cable_car subway aircraft wheelchair scooter drone" speed="27.78" length="13.06" shape="905.60,108.29 911.99,96.98"/>
        <lane id=":10203920324_0_1" index="1" disallow="tram rail_urban rail rail_electric rail_fast ship container cable_car subway aircraft wheelchair scooter drone" speed="27.78" length="13.06" shape="908.38,109.88 914.80,98.51"/>
        <lane id=":10203920324_0_2" index="2" disallow="tram rail_urban rail rail_electric rail_fast ship container cable_car subway aircraft wheelchair scooter drone" speed="27.78" length="13.06" shape="911.16,111.46 917.61,100.04"/>
    </edge>
    <edge id=":10203920324_3" function="internal">
        <lane id=":10203920324_3_0" index="0" disallow="tram rail_urban rail rail_electric rail_fast ship container cable_car subway aircraft wheelchair scooter drone" speed="7.27" length="11.14" shape="911.16,111.46 913.43,108.34 915.62,106.44 917.76,105.75 919.83,106.28"/>
        <lane id=":10203920324_3_1" index="1" disallow="tram rail_urban rail rail_electric rail_fast ship container cable_car subway aircraft wheelchair scooter drone" speed="6.42" length="8.46" shape="911.16,111.46 912.70,109.54 914.40,108.50 916.25,108.35 918.27,109.07"/>
    </edge>
    <edge id=":10260860315_0" function="internal">
        <lane id=":10260860315_0_0" index="0" disallow="tram rail_urban rail rail_electric rail_fast ship container cable_car subway aircraft wheelchair scooter drone" speed="22.22" length="0.19" shape="1068.76,922.75 1068.75,922.66"/>
        <lane id=":10260860315_0_1" index="1" disallow="tram rail_urban rail rail_electric rail_fast ship container cable_car subway aircraft wheelchair scooter drone" speed="22.22" length="0.19" shape="1071.93,922.30 1071.88,922.03"/>
    </edge>
    <edge id=":10260860315_2" function="internal">
        <lane id=":10260860315_2_0" index="0" disallow="tram rail_urban rail rail_electric rail_fast ship container cable_car subway aircraft wheelchair scooter drone" speed="22.22" length="0.56" shape="1078.16,920.78 1078.27,921.42"/>
        <lane id=":10260860315_2_1" index="1" disallow="tram rail_urban rail rail_electric rail_fast ship container cable_car subway aircraft wheelchair scooter drone" speed="22.22" length="0.56" shape="1075.02,921.41 1075.10,921.86"/>
    </edge>
    <edge id=":10261948255_0" function="internal">
        <lane id=":10261948255_0_0" index="0" disallow="tram rail_urban rail rail_electric rail_fast ship container cable_car subway aircraft wheelchair scooter drone" speed="10.34" length="12.12" width="4.00" shape="1283.34,1408.46 1279.84,1406.14 1276.85,1404.64 1274.36,1403.95 1272.37,1404.08"/>
    </edge>
    <edge id=":10261948255_1" function="internal">
        <lane id=":10261948255_1_0" index="0" disallow="tram rail_urban rail rail_electric rail_fast ship container cable_car subway aircraft wheelchair scooter drone" speed="27.78" length="13.42" width="4.00" shape="1285.13,1403.20 1281.30,1403.15 1278.65,1403.00 1276.05,1403.17 1272.37,1404.08"/>
        <lane id=":10261948255_1_1" index="1" disallow="tram rail_urban rail rail_electric rail_fast ship container cable_car subway aircraft wheelchair scooter drone" speed="27.78" length="13.42" width="4.00" shape="1285.01,1399.20 1280.86,1399.17 1277.99,1399.04 1275.17,1399.26 1271.19,1400.26"/>
    </edge>
    <edge id=":10261948258_0" function="internal">
        <lane id=":10261948258_0_0" index="0" disallow="tram rail_urban rail rail_electric rail_fast ship container cable_car subway aircraft wheelchair scooter drone" speed="11.05" length="6.43" width="5.00" shape="1299.14,1419.04 1298.31,1417.42 1297.35,1416.56 1296.12,1415.91 1294.48,1414.89"/>
    </edge>
    <edge id=":10261948258_1" function="internal">
        <lane id=":10261948258_1_0" index="0" disallow="tram rail_urban rail rail_electric rail_fast ship container cable_car subway aircraft wheelchair scooter drone" speed="22.22" length="7.91" shape="1299.14,1419.04 1298.73,1416.79 1299.02,1415.15 1299.33,1413.50 1298.92,1411.25"/>
    </edge>
    <edge id=":10261948258_2" function="internal">
        <lane id=":10261948258_2_0" index="0" disallow="tram rail_urban rail rail_electric rail_fast ship container cable_car subway aircraft wheelchair scooter drone" speed="5.77" length="3.61" width="8.00" shape="1299.14,1419.04 1299.98,1415.53"/>
    </edge>
    <edge id=":10261948258_9" function="internal">
        <lane id=":10261948258_9_0" index="0" disallow="tram rail_urban rail rail_electric rail_fast ship container cable_car subway aircraft wheelchair scooter drone" speed="5.77" length="8.08" width="8.00" shape="1299.98,1415.53 1301.51,1413.90 1303.74,1414.15 1306.65,1416.27"/>
    </edge>
    <edge id=":10261948258_3" function="internal">
        <lane id=":10261948258_3_0" index="0" disallow="tram rail_urban rail rail_electric rail_fast ship container cable_car subway aircraft wheelchair scooter drone" speed="7.68" length="5.73" width="8.00" shape="1308.24,1410.90 1307.33,1412.67 1306.76,1414.16 1306.54,1415.36 1306.65,1416.27"/>
    </edge>
    <edge id=":10261948258_4" function="internal">
        <lane id=":10261948258_4_0" index="0" disallow="tram rail_urban rail rail_electric rail_fast ship container cable_car subway aircraft wheelchair scooter drone" speed="8.45" length="16.82" width="5.00" shape="1308.24,1410.90 1305.26,1414.90 1301.98,1416.90 1298.38,1416.90 1294.48,1414.89"/>
    </edge>
    <edge id=":10261948258_5" function="internal">
        <lane id=":10261948258_5_0" index="0" disallow="tram rail_urban rail rail_electric rail_fast ship container cable_car subway aircraft wheelchair scooter drone" speed="6.74" length="14.17" shape="1308.24,1410.90 1305.50,1414.75 1303.03,1416.10 1300.84,1414.93 1298.92,1411.25"/>
    </edge>
    <edge id=":10261948258_6" function="internal">
        <lane id=":10261948258_6_0" index="0" disallow="tram rail_urban rail rail_electric rail_fast ship container cable_car subway aircraft wheelchair scooter drone" speed="22.22" length="7.76" width="8.00" shape="1301.96,1410.23 1303.05,1412.19 1304.29,1413.26 1305.54,1414.32 1306.65,1416.27"/>
    </edge>
    <edge id=":10261948258_7" function="internal">
        <lane id=":10261948258_7_0" index="0" disallow="tram rail_urban rail rail_electric rail_fast ship container cable_car subway aircraft wheelchair scooter drone" speed="6.80" length="8.05" width="5.00" shape="1301.96,1410.23 1303.37,1415.74 1302.69,1418.01"/>
    </edge>
    <edge id=":10261948258_8" function="internal">
        <lane id=":10261948258_8_0" index="0" disallow="tram rail_urban rail rail_electric rail_fast ship container cable_car subway aircraft wheelchair scooter drone" speed="3.65" length="1.44" shape="1301.96,1410.23 1301.58,1411.62"/>
    </edge>
    <edge id=":10261948258_10" function="internal">
        <lane id=":10261948258_10_0" index="0" disallow="tram rail_urban rail rail_electric rail_fast ship container cable_car subway aircraft wheelchair scooter drone" speed="6.80" length="9.38" width="5.00" shape="1302.69,1418.01 1302.59,1418.35 1299.63,1418.07 1294.48,1414.89"/>
    </edge>
    <edge id=":10261948258_11" function="internal">
        <lane id=":10261948258_11_0" index="0" disallow="tram rail_urban rail rail_electric rail_fast ship container cable_car subway aircraft wheelchair scooter drone" speed="3.65" length="3.23" shape="1301.58,1411.62 1300.95,1412.26 1300.07,1412.13 1298.92,1411.25"/>
    </edge>
    <edge id=":10261948262_0" function="internal">
        <lane id=":10261948262_0_0" index="0" disallow="tram rail_urban rail rail_electric rail_fast ship container cable_car subway aircraft wheelchair scooter drone" speed="11.25" length="11.30" width="5.00" shape="1322.21,1389.51 1319.24,1390.87 1317.52,1392.51 1316.35,1394.67 1314.98,1397.56"/>
    </edge>
    <edge id=":10261948262_1" function="internal">
        <lane id=":10261948262_1_0" index="0" disallow="tram rail_urban rail rail_electric rail_fast ship container cable_car subway aircraft wheelchair scooter drone" speed="20.84" length="14.36" width="4.00" shape="1322.21,1389.51 1318.23,1390.87 1315.54,1391.88 1312.89,1393.01 1309.06,1394.74"/>
        <lane id=":10261948262_1_1" index="1" disallow="tram rail_urban rail rail_electric rail_fast ship container cable_car subway aircraft wheelchair scooter drone" speed="20.84" length="14.36" width="4.00" shape="1320.93,1385.72 1316.84,1387.12 1314.07,1388.15 1311.35,1389.31 1307.41,1391.09"/>
    </edge>
    <edge id=":10261948266_0" function="internal">
        <lane id=":10261948266_0_0" index="0" disallow="tram rail_urban rail rail_electric rail_fast ship container cable_car subway aircraft wheelchair scooter drone" speed="11.66" length="16.92" width="4.00" shape="1261.00,1383.27 1265.44,1381.48 1268.96,1379.10 1271.55,1376.13 1273.21,1372.56"/>
    </edge>
    <edge id=":10261948266_1" function="internal">
        <lane id=":10261948266_1_0" index="0" disallow="tram rail_urban rail rail_electric rail_fast ship container cable_car subway aircraft wheelchair scooter drone" speed="27.78" length="16.25" shape="1261.00,1383.27 1265.52,1381.79 1268.54,1380.56 1271.51,1379.21 1275.89,1377.33"/>
        <lane id=":10261948266_1_1" index="1" disallow="tram rail_urban rail rail_electric rail_fast ship container cable_car subway aircraft wheelchair scooter drone" speed="27.78" length="16.25" shape="1262.16,1387.10 1266.74,1385.46 1269.73,1383.96 1272.67,1382.33 1277.10,1380.29"/>
    </edge>
    <edge id=":10261948267_0" function="internal">
        <lane id=":10261948267_0_0" index="0" disallow="tram rail_urban rail rail_electric rail_fast ship container cable_car subway aircraft wheelchair scooter drone" speed="22.22" length="9.64" shape="1277.22,1371.95 1275.44,1369.64 1274.16,1368.11 1272.96,1366.52 1271.43,1364.05"/>
        <lane id=":10261948267_0_1" index="1" disallow="tram rail_urban rail rail_electric rail_fast ship container cable_car subway aircraft wheelchair scooter drone" speed="22.22" length="9.64" shape="1279.81,1370.07 1278.09,1367.85 1276.85,1366.37 1275.68,1364.84 1274.21,1362.46"/>
    </edge>
    <edge id=":10261948267_2" function="internal">
        <lane id=":10261948267_2_0" index="0" disallow="tram rail_urban rail rail_electric rail_fast ship container cable_car subway aircraft wheelchair scooter drone" speed="7.09" length="4.17" width="4.00" shape="1279.81,1370.07 1277.81,1366.42"/>
    </edge>
    <edge id=":10261948267_3" function="internal">
        <lane id=":10261948267_3_0" index="0" disallow="tram rail_urban rail rail_electric rail_fast ship container cable_car subway aircraft wheelchair scooter drone" speed="3.65" length="1.44" shape="1279.81,1370.07 1279.75,1368.63"/>
    </edge>
    <edge id=":10261948267_11" function="internal">
        <lane id=":10261948267_11_0" index="0" disallow="tram rail_urban rail rail_electric rail_fast ship container cable_car subway aircraft wheelchair scooter drone" speed="7.09" length="14.30" width="4.00" shape="1277.81,1366.42 1277.30,1365.49 1277.87,1362.90 1281.53,1362.29 1288.27,1363.68"/>
    </edge>
    <edge id=":10261948267_12" function="internal">
        <lane id=":10261948267_12_0" index="0" disallow="tram rail_urban rail rail_electric rail_fast ship container cable_car subway aircraft wheelchair scooter drone" speed="3.65" length="3.23" shape="1279.75,1368.63 1280.16,1367.84 1281.05,1367.69 1282.40,1368.19"/>
    </edge>