<?xml version="1.0" encoding="UTF-8"?>

<!-- generated on 2025-10-13 09:30:35 by Eclipse SUMO netedit Version 1.22.0
-->

<routes xmlns:xsi="http://www.w3.org/2001/XMLSchema-instance" xsi:noNamespaceSchemaLocation="http://sumo.dlr.de/xsd/routes_file.xsd">
    <flow id="r1" type="td_0" begin="0.00" from="402098503#1" to="116432101#0.343" end="1000.00" probability="0.1" />
    <flow id="r2" type="td_0" begin="0.00" from="402098503#1" to="106042137#5" end="800.00" probability="0.1"/>    
    <flow id="r3" type="td_0" begin="0.00" from="106042137#3" to="106042137#3.336" end="800.00" probability="0.3"/>    
</routes>
