<?xml version="1.0" encoding="UTF-8"?>

<!-- generated on 2025-10-13 08:19:36 by Eclipse SUMO netedit Version 1.22.0
-->

<additional xmlns:xsi="http://www.w3.org/2001/XMLSchema-instance" xsi:noNamespaceSchemaLocation="http://sumo.dlr.de/xsd/additional_file.xsd">
    <!-- Detectors -->
    <inductionLoop id="e2_0" lane="116432101#0.21_1" pos="81.76" period="10.00" file="e1.xml"/>
    <inductionLoop id="e2_1" lane="116432101#0.21_0" pos="81.61" period="10.00" file="e1.xml"/>
    <inductionLoop id="e2_10" lane="116432101_2" pos="147.69" period="10.00" file="e1.xml"/>
    <inductionLoop id="e2_11" lane="-163053426#8_0" pos="118.16" period="10.00" file="e1.xml"/>
    <inductionLoop id="e2_12" lane="163053426_0" pos="128.05" period="10.00" file="e1.xml"/>
    <inductionLoop id="e2_13" lane="106042137#3_1" pos="94.78" period="10.00" file="e1.xml"/>
    <inductionLoop id="e2_14" lane="106042137#3_0" pos="94.20" period="10.00" file="e1.xml"/>
    <inductionLoop id="e2_15" lane="106042137#3_2" pos="94.81" period="10.00" file="e1.xml"/>
    <inductionLoop id="e2_2" lane="116432101#0.21_2" pos="81.87" period="10.00" file="e1.xml"/>
    <inductionLoop id="e2_3" lane="-402098503_0" pos="198.28" period="10.00" file="e1.xml"/>
    <inductionLoop id="e2_4" lane="106042137_1" pos="140.45" period="10.00" file="e1.xml"/>
    <inductionLoop id="e2_5" lane="402098503#1_0" pos="131.21" period="10.00" file="e1.xml"/>
    <inductionLoop id="e2_6" lane="106042137_2" pos="140.24" period="10.00" file="e1.xml"/>
    <inductionLoop id="e2_7" lane="106042137_0" pos="140.87" period="10.00" file="e1.xml"/>
    <inductionLoop id="e2_8" lane="116432101_1" pos="147.67" period="10.00" file="e1.xml"/>
    <inductionLoop id="e2_9" lane="116432101_0" pos="147.39" period="10.00" file="e1.xml"/>
    <laneAreaDetector id="e2_0" lane="116432101#0.21_1" pos="1.30" length="80.00" period="10.00" file="e2.xml" show="0"/>
    <laneAreaDetector id="e2_1" lane="116432101#0.21_0" pos="1.03" length="80.00" period="10.00" file="e2.xml" show="0"/>
    <laneAreaDetector id="e2_10" lane="116432101_2" pos="67.56" length="80.00" period="10.00" file="e2.xml" show="0"/>
    <laneAreaDetector id="e2_11" lane="-163053426#8_0" pos="37.70" length="80.00" period="10.00" file="e2.xml" show="0"/>
    <laneAreaDetector id="e2_12" lane="163053426_0" pos="47.74" length="80.00" period="10.00" file="e2.xml" show="0"/>
    <laneAreaDetector id="e2_13" lane="106042137#3_1" pos="13.66" length="80.00" period="10.00" file="e2.xml" show="0"/>
    <laneAreaDetector id="e2_14" lane="106042137#3_0" pos="13.33" length="80.00" period="10.00" file="e2.xml" show="0"/>
    <laneAreaDetector id="e2_15" lane="106042137#3_2" pos="14.20" length="80.00" period="10.00" file="e2.xml" show="0"/>
    <laneAreaDetector id="e2_2" lane="116432101#0.21_2" pos="2.55" length="80.00" period="10.00" file="e2.xml" show="0"/>
    <laneAreaDetector id="e2_3" lane="-402098503_0" pos="118.34" length="80.00" period="10.00" file="e2.xml" show="0"/>
    <laneAreaDetector id="e2_4" lane="106042137_1" pos="59.78" length="80.00" period="10.00" file="e2.xml" show="0"/>
    <laneAreaDetector id="e2_5" lane="402098503#1_0" pos="50.76" length="80.00" period="10.00" file="e2.xml" show="0"/>
    <laneAreaDetector id="e2_6" lane="106042137_2" pos="59.84" length="80.00" period="10.00" file="e2.xml" show="0"/>
    <laneAreaDetector id="e2_7" lane="106042137_0" pos="60.62" length="80.00" period="10.00" file="e2.xml" show="0"/>
    <laneAreaDetector id="e2_8" lane="116432101_1" pos="67.27" length="80.00" period="10.00" file="e2.xml" show="0"/>
    <laneAreaDetector id="e2_9" lane="116432101_0" pos="67.09" length="80.00" period="10.00" file="e2.xml" show="0"/>
</additional>
