<?xml version="1.0" encoding="UTF-8"?>

<!-- generated on 2025-09-08 13:51:48 by Eclipse SUMO netedit Version 1.24.0
<neteditConfiguration xmlns:xsi="http://www.w3.org/2001/XMLSchema-instance" xsi:noNamespaceSchemaLocation="http://sumo.dlr.de/xsd/neteditConfiguration.xsd">

    <input>
        <sumocfg-file value="src\network_test/test.sumocfg"/>
        <additional-files value="src\network_test/detector.add.xml"/>
        <sumo-net-file value="src\network_test/grid.net.xml"/>
    </input>

    <output>
        <output-file value="src\network_test/grid.net.xml"/>
    </output>

    <processing>
        <geometry.min-radius.fix.railways value="false"/>
        <geometry.avoid-overlap value="false"/>
        <geometry.max-grade.fix value="false"/>
        <offset.disable-normalization value="true"/>
        <lefthand value="0"/>
    </processing>

    <junctions>
        <no-turnarounds value="true"/>
        <junctions.corner-detail value="5"/>
        <junctions.limit-turn-speed value="5.50"/>
        <rectangular-lane-cut value="0"/>
    </junctions>

    <pedestrian>
        <walkingareas value="0"/>
    </pedestrian>

    <netedit>
        <ignore.routeelements value="false"/>
    </netedit>

</neteditConfiguration>
-->

<net version="1.20" junctionCornerDetail="5" limitTurnSpeed="5.50" avoidOverlap="0" xmlns:xsi="http://www.w3.org/2001/XMLSchema-instance" xsi:noNamespaceSchemaLocation="http://sumo.dlr.de/xsd/net_file.xsd">

    <location netOffset="0.00,0.00" convBoundary="-629.66,-632.09,1073.05,893.93" origBoundary="0.00,0.00,400.00,600.00" projParameter="!"/>

    <edge id=":A1_0" function="internal">
        <lane id=":A1_0_0" index="0" speed="13.89" length="14.49" shape="-249.78,38.49 -253.30,39.43 -256.53,40.91 -259.62,42.76 -262.71,44.78"/>
    </edge>
    <edge id=":A1_1" function="internal">
        <lane id=":A1_1_0" index="0" speed="13.89" length="15.85" shape="-249.78,38.49 -253.62,38.63 -257.60,38.04 -261.53,36.99 -265.25,35.76"/>
    </edge>
    <edge id=":A1_2" function="internal">
        <lane id=":A1_2_0" index="0" speed="3.65" length="1.33" shape="-249.78,38.49 -250.99,37.94"/>
    </edge>
    <edge id=":A1_7" function="internal">
        <lane id=":A1_7_0" index="0" speed="3.65" length="3.34" shape="-250.99,37.94 -251.09,37.90 -251.62,37.17 -251.35,36.32 -250.29,35.33"/>
    </edge>
    <edge id=":A1_3" function="internal">
        <lane id=":A1_3_0" index="0" speed="13.89" length="14.31" shape="-264.21,32.73 -260.73,33.94 -257.33,34.94 -253.88,35.49 -250.29,35.33"/>
    </edge>
    <edge id=":A1_4" function="internal">
        <lane id=":A1_4_0" index="0" speed="7.38" length="17.91" shape="-264.21,32.73 -259.23,35.17 -257.32,37.99 -258.48,41.20 -262.71,44.78"/>
    </edge>
    <edge id=":A1_5" function="internal">
        <lane id=":A1_5_0" index="0" speed="5.55" length="9.43" shape="-264.46,42.10 -262.23,40.22 -261.62,38.53 -262.63,37.04 -265.25,35.76"/>
    </edge>
    <edge id=":A1_6" function="internal">
        <lane id=":A1_6_0" index="0" speed="13.89" length="15.81" shape="-264.46,42.10 -261.18,40.00 -257.66,37.99 -254.00,36.34 -250.29,35.33"/>
    </edge>
    <edge id=":A2_0" function="internal">
        <lane id=":A2_0_0" index="0" speed="6.24" length="9.05" shape="-227.48,234.85 -227.92,232.36 -229.05,230.72 -230.88,229.92 -233.41,229.97"/>
    </edge>
    <edge id=":A2_1" function="internal">
        <lane id=":A2_1_0" index="0" speed="8.14" length="14.53" shape="-227.48,234.85 -227.06,230.79 -225.52,227.83 -222.86,225.97 -219.07,225.20"/>
    </edge>
    <edge id=":A2_2" function="internal">
        <lane id=":A2_2_0" index="0" speed="6.68" length="9.44" shape="-218.91,228.40 -221.33,228.90 -223.03,230.13 -224.01,232.08 -224.28,234.75"/>
    </edge>
    <edge id=":A2_3" function="internal">
        <lane id=":A2_3_0" index="0" speed="13.89" length="14.59" shape="-218.91,228.40 -222.59,228.64 -226.18,228.98 -229.76,229.42 -233.41,229.97"/>
    </edge>
    <edge id=":A2_4" function="internal">
        <lane id=":A2_4_0" index="0" speed="3.65" length="1.44" shape="-218.91,228.40 -220.15,227.66"/>
    </edge>
    <edge id=":A2_7" function="internal">
        <lane id=":A2_7_0" index="0" speed="3.65" length="3.23" shape="-220.15,227.66 -220.59,226.88 -220.23,226.06 -219.07,225.20"/>
    </edge>
    <edge id=":A2_5" function="internal">
        <lane id=":A2_5_0" index="0" speed="13.89" length="14.95" shape="-233.92,226.81 -230.22,226.26 -226.52,225.80 -222.80,225.45 -219.07,225.20"/>
    </edge>
    <edge id=":A2_6" function="internal">
        <lane id=":A2_6_0" index="0" speed="7.79" length="4.30" shape="-233.92,226.81 -229.82,226.74 -229.64,226.81"/>
    </edge>
    <edge id=":A2_8" function="internal">
        <lane id=":A2_8_0" index="0" speed="7.79" length="10.41" shape="-229.64,226.81 -226.84,228.03 -224.99,230.71 -224.28,234.75"/>
    </edge>
    <edge id=":A3_0" function="internal">
        <lane id=":A3_0_0" index="0" speed="13.89" length="12.92" shape="-214.23,377.86 -217.66,378.00 -220.67,378.33 -223.64,378.93 -226.93,379.89"/>
    </edge>
    <edge id=":A3_1" function="internal">
        <lane id=":A3_1_0" index="0" speed="8.00" length="3.85" shape="-214.23,377.86 -218.05,377.39"/>
    </edge>
    <edge id=":A3_2" function="internal">
        <lane id=":A3_2_0" index="0" speed="3.65" length="1.44" shape="-214.23,377.86 -215.45,377.08"/>
    </edge>
    <edge id=":A3_7" function="internal">
        <lane id=":A3_7_0" index="0" speed="8.00" length="10.22" shape="-218.05,377.39 -220.82,375.81 -222.54,373.13 -223.21,369.34"/>
    </edge>
    <edge id=":A3_8" function="internal">
        <lane id=":A3_8_0" index="0" speed="3.65" length="3.23" shape="-215.45,377.08 -215.86,376.29 -215.48,375.48 -214.30,374.66"/>
    </edge>
    <edge id=":A3_3" function="internal">
        <lane id=":A3_3_0" index="0" speed="6.51" length="8.96" shape="-220.01,369.23 -219.58,371.65 -218.49,373.36 -216.73,374.36 -214.30,374.66"/>
    </edge>
    <edge id=":A3_4" function="internal">
        <lane id=":A3_4_0" index="0" speed="8.84" length="13.75" shape="-220.01,369.23 -220.34,373.02 -221.61,376.06 -223.80,378.34 -226.93,379.89"/>
    </edge>
    <edge id=":A3_5" function="internal">
        <lane id=":A3_5_0" index="0" speed="7.47" length="9.59" shape="-227.92,376.84 -225.79,375.78 -224.29,374.17 -223.43,372.02 -223.21,369.34"/>
    </edge>
    <edge id=":A3_6" function="internal">
        <lane id=":A3_6_0" index="0" speed="13.89" length="13.85" shape="-227.92,376.84 -224.49,375.86 -221.20,375.21 -217.87,374.82 -214.30,374.66"/>
    </edge>
    <edge id=":B0_0" function="internal">
        <lane id=":B0_0_0" index="0" speed="7.29" length="10.14" shape="-94.30,-158.45 -95.27,-160.69 -96.92,-162.22 -99.24,-163.04 -102.22,-163.14"/>
    </edge>
    <edge id=":B0_1" function="internal">
        <lane id=":B0_1_0" index="0" speed="13.89" length="14.63" shape="-94.30,-158.45 -98.27,-172.53"/>
    </edge>
    <edge id=":B0_2" function="internal">
        <lane id=":B0_2_0" index="0" speed="3.65" length="1.44" shape="-94.30,-158.45 -93.81,-159.81"/>
    </edge>
    <edge id=":B0_7" function="internal">
        <lane id=":B0_7_0" index="0" speed="3.65" length="3.23" shape="-93.81,-159.81 -93.13,-160.39 -92.25,-160.19 -91.19,-159.22"/>
    </edge>
    <edge id=":B0_3" function="internal">
        <lane id=":B0_3_0" index="0" speed="13.89" length="14.82" shape="-95.21,-173.48 -91.19,-159.22"/>
    </edge>
    <edge id=":B0_4" function="internal">
        <lane id=":B0_4_0" index="0" speed="7.66" length="4.52" shape="-95.21,-173.48 -94.53,-169.25 -94.60,-169.02"/>
    </edge>
    <edge id=":B0_8" function="internal">
        <lane id=":B0_8_0" index="0" speed="7.66" length="10.60" shape="-94.60,-169.02 -95.47,-166.11 -98.03,-164.07 -102.22,-163.14"/>
    </edge>
    <edge id=":B0_5" function="internal">
        <lane id=":B0_5_0" index="0" speed="6.07" length="9.07" shape="-102.47,-166.33 -99.96,-166.89 -98.42,-168.11 -97.86,-169.99 -98.27,-172.53"/>
    </edge>
    <edge id=":B0_6" function="internal">
        <lane id=":B0_6_0" index="0" speed="8.66" length="14.70" shape="-102.47,-166.33 -98.26,-166.16 -94.98,-164.91 -92.62,-162.60 -91.19,-159.22"/>
    </edge>
    <edge id=":B1_0" function="internal">
        <lane id=":B1_0_0" index="0" speed="7.56" length="10.52" shape="-45.33,5.62 -47.78,6.38 -49.60,7.89 -50.79,10.14 -51.34,13.13"/>
    </edge>
    <edge id=":B1_1" function="internal">
        <lane id=":B1_1_0" index="0" speed="13.89" length="14.90" shape="-45.33,5.62 -60.05,7.87"/>
    </edge>
    <edge id=":B1_2" function="internal">
        <lane id=":B1_2_0" index="0" speed="8.33" length="14.30" shape="-45.33,5.62 -49.07,5.59 -52.06,4.34 -54.27,1.85 -55.72,-1.86"/>
    </edge>
    <edge id=":B1_3" function="internal">
        <lane id=":B1_3_0" index="0" speed="3.65" length="4.67" shape="-45.33,5.62 -46.63,5.00 -47.14,4.26 -46.85,3.41 -45.78,2.45"/>
    </edge>
    <edge id=":B1_4" function="internal">
        <lane id=":B1_4_0" index="0" speed="6.90" length="9.50" shape="-52.61,-2.63 -51.65,-0.12 -50.18,1.57 -48.23,2.42 -45.78,2.45"/>
    </edge>
    <edge id=":B1_5" function="internal">
        <lane id=":B1_5_0" index="0" speed="13.89" length="15.87" shape="-52.61,-2.63 -51.86,1.18 -51.40,5.20 -51.22,9.25 -51.34,13.13"/>
    </edge>
    <edge id=":B1_6" function="internal">
        <lane id=":B1_6_0" index="0" speed="7.97" length="14.96" shape="-52.61,-2.63 -52.25,1.38 -53.37,4.47 -55.97,6.63 -60.05,7.87"/>
    </edge>
    <edge id=":B1_7" function="internal">
        <lane id=":B1_7_0" index="0" speed="3.65" length="4.67" shape="-52.61,-2.63 -53.10,-1.27 -53.78,-0.69 -54.66,-0.89 -55.72,-1.86"/>
    </edge>
    <edge id=":B1_8" function="internal">
        <lane id=":B1_8_0" index="0" speed="6.47" length="9.49" shape="-60.56,4.71 -57.93,3.92 -56.25,2.57 -55.51,0.64 -55.72,-1.86"/>
    </edge>
    <edge id=":B1_9" function="internal">
        <lane id=":B1_9_0" index="0" speed="13.89" length="14.96" shape="-60.56,4.71 -45.78,2.45"/>
    </edge>
    <edge id=":B1_10" function="internal">
        <lane id=":B1_10_0" index="0" speed="7.65" length="15.14" shape="-60.56,4.71 -56.27,4.64 -53.30,6.02 -51.66,8.85 -51.34,13.13"/>
    </edge>
    <edge id=":B1_11" function="internal">
        <lane id=":B1_11_0" index="0" speed="3.65" length="4.67" shape="-60.56,4.71 -59.25,5.31 -58.73,6.04 -59.00,6.89 -60.05,7.87"/>
    </edge>
    <edge id=":B1_12" function="internal">
        <lane id=":B1_12_0" index="0" speed="6.07" length="9.07" shape="-54.53,12.91 -54.72,10.35 -55.70,8.65 -57.48,7.83 -60.05,7.87"/>
    </edge>
    <edge id=":B1_13" function="internal">
        <lane id=":B1_13_0" index="0" speed="13.89" length="14.88" shape="-54.53,12.91 -54.40,9.18 -54.55,5.48 -54.98,1.79 -55.72,-1.86"/>
    </edge>
    <edge id=":B1_14" function="internal">
        <lane id=":B1_14_0" index="0" speed="8.90" length="14.92" shape="-54.53,12.91 -53.74,8.77 -52.02,5.65 -49.37,3.54 -45.78,2.45"/>
    </edge>
    <edge id=":B1_15" function="internal">
        <lane id=":B1_15_0" index="0" speed="3.65" length="4.67" shape="-54.53,12.91 -53.65,11.77 -52.82,11.43 -52.05,11.88 -51.34,13.13"/>
    </edge>
    <edge id=":B2_0" function="internal">
        <lane id=":B2_0_0" index="0" speed="7.85" length="10.81" shape="-66.18,227.36 -67.48,224.52 -69.21,222.53 -71.37,221.39 -73.96,221.10"/>
    </edge>
    <edge id=":B2_1" function="internal">
        <lane id=":B2_1_0" index="0" speed="13.89" length="16.20" shape="-66.18,227.36 -67.22,223.56 -67.95,219.46 -68.31,215.32 -68.28,211.38"/>
    </edge>
    <edge id=":B2_2" function="internal">
        <lane id=":B2_2_0" index="0" speed="7.63" length="15.23" shape="-66.18,227.36 -66.94,223.09 -66.04,219.94 -63.47,217.90 -59.24,216.98"/>
    </edge>
    <edge id=":B2_3" function="internal">
        <lane id=":B2_3_0" index="0" speed="3.65" length="4.67" shape="-66.18,227.36 -65.80,225.97 -65.16,225.34 -64.28,225.47 -63.14,226.36"/>
    </edge>
    <edge id=":B2_4" function="internal">
        <lane id=":B2_4_0" index="0" speed="6.04" length="9.07" shape="-59.01,220.17 -61.53,220.72 -63.06,221.94 -63.60,223.81 -63.14,226.36"/>
    </edge>
    <edge id=":B2_5" function="internal">
        <lane id=":B2_5_0" index="0" speed="13.89" length="14.98" shape="-59.01,220.17 -73.96,221.10"/>
    </edge>
    <edge id=":B2_6" function="internal">
        <lane id=":B2_6_0" index="0" speed="7.85" length="15.09" shape="-59.01,220.17 -63.31,219.89 -66.29,218.33 -67.94,215.50 -68.28,211.38"/>
    </edge>
    <edge id=":B2_7" function="internal">
        <lane id=":B2_7_0" index="0" speed="3.65" length="4.67" shape="-59.01,220.17 -60.26,219.46 -60.72,218.69 -60.37,217.87 -59.24,216.98"/>
    </edge>
    <edge id=":B2_8" function="internal">
        <lane id=":B2_8_0" index="0" speed="6.32" length="9.38" shape="-65.08,211.60 -64.87,214.12 -63.82,215.86 -61.94,216.81 -59.24,216.98"/>
    </edge>
    <edge id=":B2_9" function="internal">
        <lane id=":B2_9_0" index="0" speed="13.89" length="14.97" shape="-65.08,211.60 -65.15,215.34 -64.83,219.07 -64.16,222.75 -63.14,226.36"/>
    </edge>
    <edge id=":B2_10" function="internal">
        <lane id=":B2_10_0" index="0" speed="8.44" length="14.46" shape="-65.08,211.60 -65.87,215.60 -67.62,218.52 -70.31,220.35 -73.96,221.10"/>
    </edge>
    <edge id=":B2_11" function="internal">
        <lane id=":B2_11_0" index="0" speed="3.65" length="4.67" shape="-65.08,211.60 -65.96,212.74 -66.79,213.09 -67.56,212.63 -68.28,211.38"/>
    </edge>
    <edge id=":B2_12" function="internal">
        <lane id=":B2_12_0" index="0" speed="7.03" length="9.74" shape="-74.12,217.91 -71.73,217.40 -69.95,216.14 -68.80,214.13 -68.28,211.38"/>
    </edge>
    <edge id=":B2_13" function="internal">
        <lane id=":B2_13_0" index="0" speed="13.89" length="14.91" shape="-74.12,217.91 -59.24,216.98"/>
    </edge>
    <edge id=":B2_14" function="internal">
        <lane id=":B2_14_0" index="0" speed="9.16" length="15.02" shape="-74.12,217.91 -70.42,218.28 -67.35,219.82 -64.93,222.51 -63.14,226.36"/>
    </edge>
    <edge id=":B2_15" function="internal">
        <lane id=":B2_15_0" index="0" speed="3.65" length="4.67" shape="-74.12,217.91 -72.88,218.64 -72.44,219.42 -72.80,220.24 -73.96,221.10"/>
    </edge>
    <edge id=":B3_0" function="internal">
        <lane id=":B3_0_0" index="0" speed="9.61" length="13.89" shape="-13.86,381.20 -15.91,378.00 -18.42,375.73 -21.39,374.40 -24.82,374.01"/>
    </edge>
    <edge id=":B3_1" function="internal">
        <lane id=":B3_1_0" index="0" speed="13.89" length="17.73" shape="-13.86,381.20 -15.64,377.42 -17.51,373.11 -19.25,368.76 -20.66,364.83"/>
    </edge>
    <edge id=":B3_2" function="internal">
        <lane id=":B3_2_0" index="0" speed="7.43" length="16.43" shape="-13.86,381.20 -15.42,376.58 -14.85,373.29 -12.14,371.33 -7.30,370.72"/>
    </edge>
    <edge id=":B3_3" function="internal">
        <lane id=":B3_3_0" index="0" speed="3.65" length="4.67" shape="-13.86,381.20 -13.68,379.77 -13.14,379.05 -12.25,379.06 -11.00,379.78"/>
    </edge>
    <edge id=":B3_4" function="internal">
        <lane id=":B3_4_0" index="0" speed="5.73" length="9.19" shape="-7.33,373.92 -10.03,374.26 -11.55,375.35 -11.87,377.19 -11.00,379.78"/>
    </edge>
    <edge id=":B3_5" function="internal">
        <lane id=":B3_5_0" index="0" speed="13.89" length="17.50" shape="-7.33,373.92 -24.82,374.01"/>
    </edge>
    <edge id=":B3_6" function="internal">
        <lane id=":B3_6_0" index="0" speed="10.08" length="17.35" shape="-7.33,373.92 -12.04,373.32 -15.84,371.60 -18.71,368.77 -20.66,364.83"/>
    </edge>
    <edge id=":B3_7" function="internal">
        <lane id=":B3_7_0" index="0" speed="3.65" length="4.67" shape="-7.33,373.92 -8.52,373.11 -8.91,372.30 -8.51,371.51 -7.30,370.72"/>
    </edge>
    <edge id=":B3_8" function="internal">
        <lane id=":B3_8_0" index="0" speed="8.90" length="13.34" shape="-17.62,363.82 -16.13,366.81 -13.91,368.96 -10.97,370.26 -7.30,370.72"/>
    </edge>
    <edge id=":B3_9" function="internal">
        <lane id=":B3_9_0" index="0" speed="13.89" length="17.29" shape="-17.62,363.82 -16.24,367.69 -14.55,371.90 -12.75,376.06 -11.00,379.78"/>
    </edge>
    <edge id=":B3_10" function="internal">
        <lane id=":B3_10_0" index="0" speed="7.57" length="15.48" shape="-17.62,363.82 -16.83,368.20 -17.77,371.36 -20.43,373.29 -24.82,374.01"/>
    </edge>
    <edge id=":B3_11" function="internal">
        <lane id=":B3_11_0" index="0" speed="3.65" length="4.67" shape="-17.62,363.82 -18.00,365.21 -18.64,365.84 -19.52,365.72 -20.66,364.83"/>
    </edge>
    <edge id=":B3_12" function="internal">
        <lane id=":B3_12_0" index="0" speed="5.96" length="9.09" shape="-24.89,370.81 -22.31,370.39 -20.75,369.25 -20.20,367.40 -20.66,364.83"/>
    </edge>
    <edge id=":B3_13" function="internal">
        <lane id=":B3_13_0" index="0" speed="13.89" length="17.59" shape="-24.89,370.81 -7.30,370.72"/>
    </edge>
    <edge id=":B3_14" function="internal">
        <lane id=":B3_14_0" index="0" speed="10.74" length="17.52" shape="-24.89,370.81 -20.51,371.30 -16.74,372.96 -13.57,375.78 -11.00,379.78"/>
    </edge>
    <edge id=":B3_15" function="internal">
        <lane id=":B3_15_0" index="0" speed="3.65" length="4.67" shape="-24.89,370.81 -23.67,371.59 -23.26,372.38 -23.64,373.18 -24.82,374.01"/>
    </edge>
    <edge id=":B4_0" function="internal">
        <lane id=":B4_0_0" index="0" speed="5.96" length="9.09" shape="66.04,538.37 64.15,536.58 62.29,536.03 60.48,536.71 58.71,538.62"/>
    </edge>
    <edge id=":B4_1" function="internal">
        <lane id=":B4_1_0" index="0" speed="13.89" length="14.49" shape="66.04,538.37 63.80,535.47 61.72,532.55 59.82,529.53 58.07,526.31"/>
    </edge>
    <edge id=":B4_2" function="internal">
        <lane id=":B4_2_0" index="0" speed="13.89" length="13.81" shape="60.94,524.89 62.63,528.02 64.41,530.85 66.36,533.57 68.55,536.38"/>
    </edge>
    <edge id=":B4_3" function="internal">
        <lane id=":B4_3_0" index="0" speed="10.22" length="3.41" shape="60.94,524.89 61.94,528.04 61.94,528.14"/>
    </edge>
    <edge id=":B4_4" function="internal">
        <lane id=":B4_4_0" index="0" speed="3.65" length="1.44" shape="60.94,524.89 60.76,526.32"/>
    </edge>
    <edge id=":B4_7" function="internal">
        <lane id=":B4_7_0" index="0" speed="10.22" length="11.20" shape="61.94,528.14 61.90,531.38 60.82,534.91 58.71,538.62"/>
    </edge>
    <edge id=":B4_8" function="internal">
        <lane id=":B4_8_0" index="0" speed="3.65" length="3.23" shape="60.76,526.32 60.22,527.03 59.32,527.03 58.07,526.31"/>
    </edge>
    <edge id=":B4_5" function="internal">
        <lane id=":B4_5_0" index="0" speed="9.01" length="11.20" shape="56.08,536.81 57.77,533.87 58.67,531.15 58.77,528.63 58.07,526.31"/>
    </edge>
    <edge id=":B4_6" function="internal">
        <lane id=":B4_6_0" index="0" speed="7.58" length="15.46" shape="56.08,536.81 59.09,533.55 62.17,532.39 65.32,533.34 68.55,536.38"/>
    </edge>
    <edge id=":C0_0" function="internal">
        <lane id=":C0_0_0" index="0" speed="13.89" length="12.93" shape="177.98,-171.74 177.82,-175.16 177.48,-178.18 176.92,-181.17 176.08,-184.49"/>
    </edge>
    <edge id=":C0_1" function="internal">
        <lane id=":C0_1_0" index="0" speed="8.48" length="3.64" shape="177.98,-171.74 178.41,-175.25 178.46,-175.35"/>
    </edge>
    <edge id=":C0_2" function="internal">
        <lane id=":C0_2_0" index="0" speed="3.65" length="1.44" shape="177.98,-171.74 178.76,-172.96"/>
    </edge>
    <edge id=":C0_7" function="internal">
        <lane id=":C0_7_0" index="0" speed="8.48" length="9.94" shape="178.46,-175.35 179.86,-178.02 182.33,-180.05 185.83,-181.34"/>
    </edge>
    <edge id=":C0_8" function="internal">
        <lane id=":C0_8_0" index="0" speed="3.65" length="3.23" shape="178.76,-172.96 179.55,-173.38 180.36,-173.00 181.18,-171.81"/>
    </edge>
    <edge id=":C0_3" function="internal">
        <lane id=":C0_3_0" index="0" speed="7.07" length="9.16" shape="186.55,-178.22 184.16,-177.35 182.47,-175.99 181.48,-174.14 181.18,-171.81"/>
    </edge>
    <edge id=":C0_4" function="internal">
        <lane id=":C0_4_0" index="0" speed="8.01" length="13.79" shape="186.55,-178.22 182.80,-177.90 179.81,-178.84 177.57,-181.04 176.08,-184.49"/>
    </edge>
    <edge id=":C0_5" function="internal">
        <lane id=":C0_5_0" index="0" speed="6.51" length="8.78" shape="179.17,-185.33 180.12,-183.13 181.54,-181.73 183.45,-181.14 185.83,-181.34"/>
    </edge>
    <edge id=":C0_6" function="internal">
        <lane id=":C0_6_0" index="0" speed="13.89" length="13.70" shape="179.17,-185.33 180.02,-181.89 180.63,-178.64 181.01,-175.36 181.18,-171.81"/>
    </edge>
    <edge id=":C1_0" function="internal">
        <lane id=":C1_0_0" index="0" speed="6.31" length="9.04" shape="181.54,-21.04 181.07,-23.51 179.92,-25.15 178.08,-25.98 175.57,-25.98"/>
    </edge>
    <edge id=":C1_1" function="internal">
        <lane id=":C1_1_0" index="0" speed="13.89" length="14.70" shape="181.54,-21.04 181.03,-35.73"/>
    </edge>
    <edge id=":C1_2" function="internal">
        <lane id=":C1_2_0" index="0" speed="7.96" length="14.50" shape="181.54,-21.04 181.92,-25.06 183.47,-27.94 186.21,-29.67 190.12,-30.26"/>
    </edge>
    <edge id=":C1_3" function="internal">
        <lane id=":C1_3_0" index="0" speed="3.65" length="4.67" shape="181.54,-21.04 182.29,-22.28 183.07,-22.72 183.88,-22.35 184.74,-21.19"/>
    </edge>
    <edge id=":C1_4" function="internal">
        <lane id=":C1_4_0" index="0" speed="6.46" length="9.18" shape="190.14,-27.06 187.67,-26.68 185.95,-25.58 184.97,-23.75 184.74,-21.19"/>
    </edge>
    <edge id=":C1_5" function="internal">
        <lane id=":C1_5_0" index="0" speed="13.89" length="14.62" shape="190.14,-27.06 186.45,-26.98 182.83,-26.78 179.23,-26.45 175.57,-25.98"/>
    </edge>
    <edge id=":C1_6" function="internal">
        <lane id=":C1_6_0" index="0" speed="8.08" length="14.28" shape="190.14,-27.06 186.23,-27.59 183.40,-29.21 181.67,-31.93 181.03,-35.73"/>
    </edge>
    <edge id=":C1_7" function="internal">
        <lane id=":C1_7_0" index="0" speed="3.65" length="4.67" shape="190.14,-27.06 188.93,-27.85 188.53,-28.65 188.93,-29.45 190.12,-30.26"/>
    </edge>
    <edge id=":C1_8" function="internal">
        <lane id=":C1_8_0" index="0" speed="6.60" length="9.19" shape="184.23,-35.80 184.64,-33.37 185.77,-31.63 187.59,-30.60 190.12,-30.26"/>
    </edge>
    <edge id=":C1_9" function="internal">
        <lane id=":C1_9_0" index="0" speed="13.89" length="14.62" shape="184.23,-35.80 184.74,-21.19"/>
    </edge>
    <edge id=":C1_10" function="internal">
        <lane id=":C1_10_0" index="0" speed="8.47" length="14.57" shape="184.23,-35.80 183.76,-31.98 182.16,-29.07 179.43,-27.07 175.57,-25.98"/>
    </edge>
    <edge id=":C1_11" function="internal">
        <lane id=":C1_11_0" index="0" speed="3.65" length="4.67" shape="184.23,-35.80 183.46,-34.59 182.67,-34.17 181.86,-34.55 181.03,-35.73"/>
    </edge>
    <edge id=":C1_12" function="internal">
        <lane id=":C1_12_0" index="0" speed="7.07" length="9.84" shape="175.12,-29.15 177.75,-29.88 179.62,-31.23 180.71,-33.18 181.03,-35.73"/>
    </edge>
    <edge id=":C1_13" function="internal">
        <lane id=":C1_13_0" index="0" speed="13.89" length="15.06" shape="175.12,-29.15 178.85,-29.62 182.60,-29.96 186.37,-30.18 190.12,-30.26"/>
    </edge>
    <edge id=":C1_14" function="internal">
        <lane id=":C1_14_0" index="0" speed="7.84" length="14.57" shape="175.12,-29.15 179.17,-29.14 182.12,-27.82 183.98,-25.17 184.74,-21.19"/>
    </edge>
    <edge id=":C1_15" function="internal">
        <lane id=":C1_15_0" index="0" speed="3.65" length="4.67" shape="175.12,-29.15 176.42,-28.53 176.93,-27.79 176.65,-26.94 175.57,-25.98"/>
    </edge>
    <edge id=":C2_0" function="internal">
        <lane id=":C2_0_0" index="0" speed="6.48" length="9.13" shape="192.21,207.86 191.75,205.36 190.61,203.64 188.80,202.68 186.33,202.50"/>
    </edge>
    <edge id=":C2_1" function="internal">
        <lane id=":C2_1_0" index="0" speed="13.89" length="14.53" shape="192.21,207.86 191.55,193.34"/>
    </edge>
    <edge id=":C2_2" function="internal">
        <lane id=":C2_2_0" index="0" speed="7.89" length="14.44" shape="192.21,207.86 192.60,203.88 194.19,201.07 196.96,199.42 200.92,198.92"/>
    </edge>
    <edge id=":C2_3" function="internal">
        <lane id=":C2_3_0" index="0" speed="3.65" length="4.67" shape="192.21,207.86 192.96,206.62 193.74,206.19 194.56,206.55 195.41,207.71"/>
    </edge>
    <edge id=":C2_4" function="internal">
        <lane id=":C2_4_0" index="0" speed="6.37" length="9.04" shape="200.86,202.12 198.38,202.43 196.64,203.46 195.65,205.23 195.41,207.71"/>
    </edge>
    <edge id=":C2_5" function="internal">
        <lane id=":C2_5_0" index="0" speed="13.89" length="14.54" shape="200.86,202.12 197.18,202.09 193.59,202.14 190.00,202.28 186.33,202.50"/>
    </edge>
    <edge id=":C2_6" function="internal">
        <lane id=":C2_6_0" index="0" speed="8.25" length="14.39" shape="200.86,202.12 196.94,201.51 194.08,199.84 192.28,197.12 191.55,193.34"/>
    </edge>
    <edge id=":C2_7" function="internal">
        <lane id=":C2_7_0" index="0" speed="3.65" length="4.67" shape="200.86,202.12 199.67,201.30 199.29,200.49 199.71,199.70 200.92,198.92"/>
    </edge>
    <edge id=":C2_8" function="internal">
        <lane id=":C2_8_0" index="0" speed="6.80" length="9.47" shape="194.75,193.19 195.23,195.66 196.42,197.43 198.32,198.52 200.92,198.92"/>
    </edge>
    <edge id=":C2_9" function="internal">
        <lane id=":C2_9_0" index="0" speed="13.89" length="14.53" shape="194.75,193.19 195.41,207.71"/>
    </edge>
    <edge id=":C2_10" function="internal">
        <lane id=":C2_10_0" index="0" speed="8.09" length="14.23" shape="194.75,193.19 194.37,197.03 192.84,199.86 190.16,201.68 186.33,202.50"/>
    </edge>
    <edge id=":C2_11" function="internal">
        <lane id=":C2_11_0" index="0" speed="3.65" length="4.67" shape="194.75,193.19 194.00,194.43 193.22,194.87 192.40,194.50 191.55,193.34"/>
    </edge>
    <edge id=":C2_12" function="internal">
        <lane id=":C2_12_0" index="0" speed="6.61" length="9.17" shape="186.10,199.31 188.58,198.78 190.32,197.61 191.31,195.80 191.55,193.34"/>
    </edge>
    <edge id=":C2_13" function="internal">
        <lane id=":C2_13_0" index="0" speed="13.89" length="14.83" shape="186.10,199.31 189.81,199.08 193.50,198.94 197.20,198.89 200.92,198.92"/>
    </edge>
    <edge id=":C2_14" function="internal">
        <lane id=":C2_14_0" index="0" speed="7.98" length="14.40" shape="186.10,199.31 190.02,199.59 192.88,201.09 194.68,203.79 195.41,207.71"/>
    </edge>
    <edge id=":C2_15" function="internal">
        <lane id=":C2_15_0" index="0" speed="3.65" length="4.67" shape="186.10,199.31 187.35,200.02 187.81,200.79 187.47,201.62 186.33,202.50"/>
    </edge>
    <edge id=":C3_0" function="internal">
        <lane id=":C3_0_0" index="0" speed="9.42" length="13.08" shape="203.78,383.00 201.84,379.77 199.54,377.46 196.88,376.06 193.87,375.58"/>
    </edge>
    <edge id=":C3_1" function="internal">
        <lane id=":C3_1_0" index="0" speed="13.89" length="16.94" shape="203.78,383.00 202.21,379.26 200.83,375.05 199.82,370.76 199.33,366.74"/>
    </edge>
    <edge id=":C3_2" function="internal">
        <lane id=":C3_2_0" index="0" speed="7.44" length="16.39" shape="203.78,383.00 202.29,378.37 202.91,375.10 205.63,373.16 210.45,372.58"/>
    </edge>
    <edge id=":C3_3" function="internal">
        <lane id=":C3_3_0" index="0" speed="3.65" length="4.67" shape="203.78,383.00 203.98,381.57 204.53,380.87 205.43,380.88 206.67,381.62"/>
    </edge>
    <edge id=":C3_4" function="internal">
        <lane id=":C3_4_0" index="0" speed="5.74" length="9.18" shape="210.40,375.78 207.70,376.11 206.18,377.19 205.83,379.02 206.67,381.62"/>
    </edge>
    <edge id=":C3_5" function="internal">
        <lane id=":C3_5_0" index="0" speed="13.89" length="16.53" shape="210.40,375.78 193.87,375.58"/>
    </edge>
    <edge id=":C3_6" function="internal">
        <lane id=":C3_6_0" index="0" speed="8.66" length="16.05" shape="210.40,375.78 205.71,375.15 202.30,373.44 200.17,370.64 199.33,366.74"/>
    </edge>
    <edge id=":C3_7" function="internal">
        <lane id=":C3_7_0" index="0" speed="3.65" length="4.67" shape="210.40,375.78 209.22,374.96 208.83,374.15 209.24,373.36 210.45,372.58"/>
    </edge>
    <edge id=":C3_8" function="internal">
        <lane id=":C3_8_0" index="0" speed="7.31" length="11.12" shape="202.53,366.60 203.12,369.17 204.64,371.03 207.08,372.16 210.45,372.58"/>
    </edge>
    <edge id=":C3_9" function="internal">
        <lane id=":C3_9_0" index="0" speed="13.89" length="15.67" shape="202.53,366.60 202.97,370.42 203.87,374.29 205.14,378.07 206.67,381.62"/>
    </edge>
    <edge id=":C3_10" function="internal">
        <lane id=":C3_10_0" index="0" speed="7.91" length="14.40" shape="202.53,366.60 202.14,370.56 200.57,373.37 197.81,375.05 193.87,375.58"/>
    </edge>
    <edge id=":C3_11" function="internal">
        <lane id=":C3_11_0" index="0" speed="3.65" length="4.67" shape="202.53,366.60 201.78,367.84 201.00,368.27 200.18,367.91 199.33,366.74"/>
    </edge>
    <edge id=":C3_12" function="internal">
        <lane id=":C3_12_0" index="0" speed="6.39" length="9.04" shape="193.90,372.38 196.37,372.04 198.10,370.99 199.09,369.23 199.33,366.74"/>
    </edge>
    <edge id=":C3_13" function="internal">
        <lane id=":C3_13_0" index="0" speed="13.89" length="16.55" shape="193.90,372.38 210.45,372.58"/>
    </edge>
    <edge id=":C3_14" function="internal">
        <lane id=":C3_14_0" index="0" speed="10.57" length="16.66" shape="193.90,372.38 197.84,372.98 201.28,374.72 204.22,377.60 206.67,381.62"/>
    </edge>
    <edge id=":C3_15" function="internal">