<?xml version="1.0" encoding="UTF-8"?>

<!-- generated on 2025-09-30 11:25:40.593638 by randomTrips.py v1_24_0+0000-b72eb3fabc8
<configuration>
    <net-file value="grid.net.xml"/>
    <output-trip-file value="grid-demo.rou.xml"/>
    <trip-attributes value="type=&quot;td_0&quot; departLane=&quot;best&quot; departSpeed=&quot;max&quot; departPos=&quot;random&quot;"/>
    <lanes value="True"/>
    <seed value="123"/>
    <insertion-rate value="10000.0"/>
    <random-depart value="True"/>
    <binomial value="10"/>
</configuration>
-->

<!-- generated on 2025-09-30 11:25:40 by Eclipse SUMO duarouter Version 1.24.0
<duarouterConfiguration xmlns:xsi="http://www.w3.org/2001/XMLSchema-instance" xsi:noNamespaceSchemaLocation="http://sumo.dlr.de/xsd/duarouterConfiguration.xsd">

    <input>
        <net-file value="grid.net.xml"/>
        <route-files value="grid-demo.rou.xml"/>
    </input>

    <output>
        <output-file value="routes.rou.xml"/>
        <alternatives-output value="NUL"/>
    </output>

    <time>
        <begin value="0.0"/>
        <end value="3600.0"/>
    </time>

    <report>
        <no-warnings value="true"/>
        <ignore-errors value="true"/>
        <no-step-log value="true"/>
    </report>

</duarouterConfiguration>
-->

<routes xmlns:xsi="http://www.w3.org/2001/XMLSchema-instance" xsi:noNamespaceSchemaLocation="http://sumo.dlr.de/xsd/routes_file.xsd">
    <vehicle id="0" type="td_0" depart="0.00" departLane="best" departPos="random" departSpeed="max">
        <route edges="-E2 B4B3 B3B2 B2B1 B1C1 C1C0 C0C1"/>
    </vehicle>
    <vehicle id="1" type="td_0" depart="0.00" departLane="best" departPos="random" departSpeed="max">
        <route edges="-E52 E51 -E50 -E44 A1B1 B1C1"/>
    </vehicle>
    <vehicle id="2" type="td_0" depart="0.00" departLane="best" departPos="random" departSpeed="max">
        <route edges="-E0 D4D3 D3D2 D2D1 D1C1 C1D1"/>
    </vehicle>
    <vehicle id="3" type="td_0" depart="1.00" departLane="best" departPos="random" departSpeed="max">
        <route edges="D0D1 D1E1 E26 E27 -E29 -E28 -E25"/>
    </vehicle>
    <vehicle id="4" type="td_0" depart="2.00" departLane="best" departPos="random" departSpeed="max">
        <route edges="-E27 -E26 E1D1 D1D0 E31"/>
    </vehicle>
    <vehicle id="5" type="td_0" depart="2.00" departLane="best" departPos="random" departSpeed="max">
        <route edges="E44 E50 -E51 E52 -E49 A3B3 B3C3 C3D3 D3D2"/>
    </vehicle>
    <vehicle id="6" type="td_0" depart="3.00" departLane="best" departPos="random" departSpeed="max">
        <route edges="E32 E33 -E22 E23 -E24 E2D2"/>
    </vehicle>
    <vehicle id="7" type="td_0" depart="3.00" departLane="best" departPos="random" departSpeed="max">
        <route edges="D1C1 C1D1 D1D2"/>
    </vehicle>
    <vehicle id="8" type="td_0" depart="3.00" departLane="best" departPos="random" departSpeed="max">
        <route edges="E22 -E33 -E32 -E30 E31 -E34 E35 E36 -E41"/>
    </vehicle>
    <vehicle id="9" type="td_0" depart="3.00" departLane="best" departPos="random" departSpeed="max">
        <route edges="-E52 -E47 A2B2 B2B3 B3C3"/>
    </vehicle>
    <vehicle id="10" type="td_0" depart="4.00" departLane="best" departPos="random" departSpeed="max">
        <route edges="B2B3 B3C3 C3D3 D3D2"/>
    </vehicle>
    <vehicle id="11" type="td_0" depart="5.00" departLane="best" departPos="random" departSpeed="max">
        <route edges="-E2 B4B3 B3B4 E2 E10 E12"/>
    </vehicle>
    <vehicle id="12" type="td_0" depart="5.00" departLane="best" departPos="random" departSpeed="max">
        <route edges="-E54 -E52 -E47 -E48"/>
    </vehicle>
    <vehicle id="13" type="td_0" depart="6.00" departLane="best" departPos="random" departSpeed="max">
        <route edges="B3B4 B4B3 B3B2 B2B1 B1A1 E45 -E46 -E43 -E40"/>
    </vehicle>
    <vehicle id="14" type="td_0" depart="6.00" departLane="best" departPos="random" departSpeed="max">
        <route edges="-E26 E1D1 D1C1 C1B1 B1A1 E45 -E46 -E43"/>
    </vehicle>
    <vehicle id="15" type="td_0" depart="7.00" departLane="best" departPos="random" departSpeed="max">
        <route edges="-E54 -E49 A3B3 B3B4 E3 E4 E6 -E7"/>
    </vehicle>
    <vehicle id="16" type="td_0" depart="7.00" departLane="best" departPos="random" departSpeed="max">
        <route edges="-E17 -E0 D4D3 D3C3 C3B3 B3B2 B2B3"/>
    </vehicle>
    <vehicle id="17" type="td_0" depart="8.00" departLane="best" departPos="random" departSpeed="max">
        <route edges="B1C1 C1B1 B1B2 B2B3 B3B4 E3 E4 -E1"/>
    </vehicle>
    <vehicle id="18" type="td_0" depart="8.00" departLane="best" departPos="random" departSpeed="max">
        <route edges="D4D3 D3D2 D2D1 D1D0 E31 -E34 C0C1"/>
    </vehicle>
    <vehicle id="19" type="td_0" depart="8.00" departLane="best" departPos="random" departSpeed="max">
        <route edges="B3B2 B2C2 C2D2 D2E2 E25 E28"/>
    </vehicle>
    <vehicle id="20" type="td_0" depart="9.00" departLane="best" departPos="random" departSpeed="max">
        <route edges="-E19 E3D3 D3C3 C3C2 C2C1 C1C0 E35 E36 E42"/>
    </vehicle>
    <vehicle id="21" type="td_0" depart="9.00" departLane="best" departPos="random" departSpeed="max">
        <route edges="C1C0 E34 -E31 D0D1 D1D2 D2C2"/>
    </vehicle>
    <vehicle id="22" type="td_0" depart="10.00" departLane="best" departPos="random" departSpeed="max">
        <route edges="D2E2 E2D2 D2C2 C2B2 B2A2 E47"/>
    </vehicle>
    <vehicle id="23" type="td_0" depart="10.00" departLane="best" departPos="random" departSpeed="max">
        <route edges="E52 -E49 E48 A2B2 B2B1 B1C1 C1D1 D1D0"/>
    </vehicle>
    <vehicle id="24" type="td_0" depart="10.00" departLane="best" departPos="random" departSpeed="max">
        <route edges="-E26 E23 -E24 E2D2 D2D3 D3E3 E18"/>
    </vehicle>
    <vehicle id="25" type="td_0" depart="10.00" departLane="best" departPos="random" departSpeed="max">
        <route edges="C1C2 C2C1 C1B1 B1B0 E39 E41"/>
    </vehicle>
    <vehicle id="26" type="td_0" depart="11.00" departLane="best" departPos="random" departSpeed="max">
        <route edges="C0C1 C1D1 D1D2 D2D1"/>
    </vehicle>
    <vehicle id="27" type="td_0" depart="11.00" departLane="best" departPos="random" departSpeed="max">
        <route edges="C0C1 C1B1 B1B0 E40 E43 E46 -E45"/>
    </vehicle>
    <vehicle id="28" type="td_0" depart="11.00" departLane="best" departPos="random" departSpeed="max">
        <route edges="-E34 C0C1 C1B1 B1B2 B2A2 E47 E51 -E50 -E44"/>
    </vehicle>
    <vehicle id="29" type="td_0" depart="11.00" departLane="best" departPos="random" departSpeed="max">
        <route edges="C3B3 B3C3 C3D3 D3D2 D2E2 E25 E28 E29 -E27"/>
    </vehicle>
    <vehicle id="30" type="td_0" depart="11.00" departLane="best" departPos="random" departSpeed="max">
        <route edges="E31 -E34 C0C1 C1C2 C2C3 C3D3 D3D4"/>
    </vehicle>
    <vehicle id="31" type="td_0" depart="12.00" departLane="best" departPos="random" departSpeed="max">
        <route edges="C0C1 C1D1 D1E1 E22 -E33 -E32"/>
    </vehicle>
    <vehicle id="32" type="td_0" depart="13.00" departLane="best" departPos="random" departSpeed="max">
        <route edges="-E15 -E4 -E3 B4B3 B3B2 B2B1 B1B0 E40"/>
    </vehicle>
    <vehicle id="33" type="td_0" depart="13.00" departLane="best" departPos="random" departSpeed="max">
        <route edges="E52 -E49 A3B3 B3C3 C3D3 D3D2 D2E2 E24 -E23"/>
    </vehicle>
    <vehicle id="34" type="td_0" depart="13.00" departLane="best" departPos="random" departSpeed="max">
        <route edges="C2D2 D2D3 D3C3 C3B3 B3A3"/>
    </vehicle>
    <vehicle id="35" type="td_0" depart="14.00" departLane="best" departPos="random" departSpeed="max">
        <route edges="-E43 -E40 B0B1 B1C1 C1C0 E35 E36"/>
    </vehicle>
    <vehicle id="36" type="td_0" depart="14.00" departLane="best" departPos="random" departSpeed="max">
        <route edges="A1B1 B1B2 B2B3 B3C3 C3C4 E1 -E4 -E3"/>
    </vehicle>
    <vehicle id="37" type="td_0" depart="14.00" departLane="best" departPos="random" departSpeed="max">
        <route edges="B2A2 -E48 A3B3 B3C3 C3D3 D3D2"/>
    </vehicle>
    <vehicle id="38" type="td_0" depart="15.00" departLane="best" departPos="random" departSpeed="max">
        <route edges="D4D3 D3D2 D2D1 D1D0 D0D1"/>
    </vehicle>
    <vehicle id="39" type="td_0" depart="15.00" departLane="best" departPos="random" departSpeed="max">
        <route edges="E5 E9 E11 -E12 -E10 -E2 B4B3 B3B2 B2B1 B1C1 C1C0 E35 E36 -E41"/>
    </vehicle>
    <vehicle id="40" type="td_0" depart="16.00" departLane="best" departPos="random" departSpeed="max">
        <route edges="D3C3 C3D3 D3D2 D2E2 E25"/>
    </vehicle>
    <vehicle id="41" type="td_0" depart="17.00" departLane="best" departPos="random" departSpeed="max">
        <route edges="E9 E11 -E12 -E10 -E2 B4B3 B3B2 B2B1 B1C1 C1D1 D1D0 E31 -E34"/>
    </vehicle>
    <vehicle id="42" type="td_0" depart="17.00" departLane="best" departPos="random" departSpeed="max">
        <route edges="E36 -E41 -E39 B0B1 B1B2 B2C2 C2D2"/>
    </vehicle>
    <vehicle id="43" type="td_0" depart="17.00" departLane="best" departPos="random" departSpeed="max">
        <route edges="-E41 -E39 B0B1 B1B2 B2B3 B3C3 C3C4 E1 -E4"/>
    </vehicle>
    <vehicle id="44" type="td_0" depart="17.00" departLane="best" departPos="random" departSpeed="max">
        <route edges="-E14 -E9 -E5 E4 E6 -E7 D4D3 D3D2 D2D1 D1D2"/>
    </vehicle>
    <vehicle id="45" type="td_0" depart="18.00" departLane="best" departPos="random" departSpeed="max">
        <route edges="B2A2 A2B2 B2C2 C2D2 D2D1"/>
    </vehicle>
    <vehicle id="46" type="td_0" depart="19.00" departLane="best" departPos="random" departSpeed="max">
        <route edges="E48 A2B2 B2B1 B1C1 C1D1 D1E1 E23 -E24"/>
    </vehicle>
    <vehicle id="47" type="td_0" depart="19.00" departLane="best" departPos="random" departSpeed="max">
        <route edges="C3C2 C2D2 D2E2 E25 E28 E29"/>
    </vehicle>
    <vehicle id="48" type="td_0" depart="20.00" departLane="best" departPos="random" departSpeed="max">
        <route edges="-E36 -E35 C0C1 C1B1 B1B2 B2B3 B3B4 E2 E10 E12 -E11 -E9 -E5"/>
    </vehicle>
    <vehicle id="49" type="td_0" depart="20.00" departLane="best" departPos="random" departSpeed="max">
        <route edges="E44 E50 -E51 -E47 A2B2 B2C2 C2D2 D2E2 E24 -E23 E26 E27 -E29 -E28 -E25"/>
    </vehicle>
    <vehicle id="50" type="td_0" depart="21.00" departLane="best" departPos="random" departSpeed="max">
        <route edges="D2E2 E2D2 D2D1"/>
    </vehicle>
    <vehicle id="51" type="td_0" depart="21.00" departLane="best" departPos="random" departSpeed="max">
        <route edges="E48 A2B2 B2C2 C2D2 D2E2 E25"/>
    </vehicle>
    <vehicle id="52" type="td_0" depart="21.00" departLane="best" departPos="random" departSpeed="max">
        <route edges="-E23 E1D1 D1D2 D2D3 D3E3 E18"/>
    </vehicle>
    <vehicle id="53" type="td_0" depart="21.00" departLane="best" departPos="random" departSpeed="max">
        <route edges="-E11 -E9 -E5 -E3 B4B3 B3B2 B2C2"/>
    </vehicle>
    <vehicle id="54" type="td_0" depart="21.00" departLane="best" departPos="random" departSpeed="max">
        <route edges="-E38 E36 -E41 -E39 B0B1 B1A1 E44 E50 -E51 -E47"/>
    </vehicle>
    <vehicle id="55" type="td_0" depart="22.00" departLane="best" departPos="random" departSpeed="max">
        <route edges="-E27 -E26 E23 -E24 E25"/>
    </vehicle>
    <vehicle id="56" type="td_0" depart="22.00" departLane="best" departPos="random" departSpeed="max">
        <route edges="B2C2 C2C1 C1B1 B1B0 E40"/>
    </vehicle>
    <vehicle id="57" type="td_0" depart="22.00" departLane="best" departPos="random" departSpeed="max">
        <route edges="C1C2 C2C1 C1B1 B1A1 A1B1"/>
    </vehicle>
    <vehicle id="58" type="td_0" depart="22.00" departLane="best" departPos="random" departSpeed="max">
        <route edges="E47 E52 -E49 A3B3 B3C3 C3C4 E1 -E4 -E3"/>
    </vehicle>
    <vehicle id="59" type="td_0" depart="23.00" departLane="best" departPos="random" departSpeed="max">
        <route edges="D3D2 D2D3 D3C3 C3B3 B3A3 E49 E53"/>
    </vehicle>
    <vehicle id="60" type="td_0" depart="23.00" departLane="best" departPos="random" departSpeed="max">
        <route edges="-E25 E2D2 D2D3 D3C3 C3C2"/>
    </vehicle>
    <vehicle id="61" type="td_0" depart="23.00" departLane="best" departPos="random" departSpeed="max">
        <route edges="E27 -E29 -E28 -E25 E2D2 D2E2 E25 E28 E29 -E27"/>
    </vehicle>
    <vehicle id="62" type="td_0" depart="24.00" departLane="best" departPos="random" departSpeed="max">
        <route edges="-E28 -E25 E2D2 D2C2 C2C3"/>
    </vehicle>
    <vehicle id="63" type="td_0" depart="24.00" departLane="best" departPos="random" departSpeed="max">
        <route edges="-E28 -E25 E2D2 D2C2 C2D2"/>
    </vehicle>
    <vehicle id="64" type="td_0" depart="24.00" departLane="best" departPos="random" departSpeed="max">
        <route edges="D3D2 D2C2 C2B2 B2B3"/>
    </vehicle>
    <vehicle id="65" type="td_0" depart="25.00" departLane="best" departPos="random" departSpeed="max">
        <route edges="B1C1 C1C2 C2C3 C3D3 D3E3 E18"/>
    </vehicle>
    <vehicle id="66" type="td_0" depart="25.00" departLane="best" departPos="random" departSpeed="max">
        <route edges="-E1 C4C3 C3B3 B3B2 B2B1 B1B2"/>
    </vehicle>
    <vehicle id="67" type="td_0" depart="25.00" departLane="best" departPos="random" departSpeed="max">
        <route edges="-E17 -E0 D4D3 D3C3 C3B3 B3A3 E49"/>
    </vehicle>
    <vehicle id="68" type="td_0" depart="25.00" departLane="best" departPos="random" departSpeed="max">
        <route edges="E28 E29 -E27 -E26 E1D1 D1D0 E31"/>
    </vehicle>
    <vehicle id="69" type="td_0" depart="26.00" departLane="best" departPos="random" departSpeed="max">
        <route edges="B1B0 B0B1 B1B2 B2B3 B3C3 C3D3 D3D4 E7"/>
    </vehicle>
    <vehicle id="70" type="td_0" depart="26.00" departLane="best" departPos="random" departSpeed="max">
        <route edges="-E54 -E49 A3B3 B3C3 C3D3 D3D2 D2E2 E25 E28 E29"/>
    </vehicle>
    <vehicle id="71" type="td_0" depart="26.00" departLane="best" departPos="random" departSpeed="max">
        <route edges="E11 -E12 -E10 -E2 B4B3 B3C3 C3C4 E1"/>
    </vehicle>
    <vehicle id="72" type="td_0" depart="27.00" departLane="best" departPos="random" departSpeed="max">
        <route edges="C4C3 C3D3 D3D2 D2E2 E24 -E23 E26 E27"/>
    </vehicle>
    <vehicle id="73" type="td_0" depart="27.00" departLane="best" departPos="random" departSpeed="max">
        <route edges="D2C2 C2D2 D2E2 E24 -E23 E26 E27 -E29 -E28 -E25"/>
    </vehicle>
    <vehicle id="74" type="td_0" depart="27.00" departLane="best" departPos="random" departSpeed="max">
        <route edges="-E6 -E1 C4C3 C3C2 C2C1 C1D1 D1D0 E30"/>
    </vehicle>
    <vehicle id="75" type="td_0" depart="27.00" departLane="best" departPos="random" departSpeed="max">
        <route edges="-E11 -E9 -E5 E4 E6 -E7 D4D3 D3D2 D2E2 E24"/>
    </vehicle>
    <vehicle id="76" type="td_0" depart="29.00" departLane="best" departPos="random" departSpeed="max">
        <route edges="E9 E11 -E12 -E10 -E2 B4B3 B3C3 C3C4 E1"/>
    </vehicle>
    <vehicle id="77" type="td_0" depart="29.00" departLane="best" departPos="random" departSpeed="max">
        <route edges="E40 E43 E46 -E45 A1B1 B1C1 C1D1 D1E1 E26 E27 -E29 -E28 -E25"/>
    </vehicle>
    <vehicle id="78" type="td_0" depart="29.00" departLane="best" departPos="random" departSpeed="max">
        <route edges="-E41 -E39 B0B1 B1C1 C1D1 D1E1 E22 -E33 -E32"/>
    </vehicle>
    <vehicle id="79" type="td_0" depart="29.00" departLane="best" departPos="random" departSpeed="max">
        <route edges="C2B2 B2B3 B3B4 E3 E4 E6"/>
    </vehicle>
    <vehicle id="80" type="td_0" depart="30.00" departLane="best" departPos="random" departSpeed="max">
        <route edges="-E20 -E19 E3D3 D3D2 D2E2 E24 -E23 E22 -E33 -E32 -E30"/>
    </vehicle>
    <vehicle id="81" type="td_0" depart="31.00" departLane="best" departPos="random" departSpeed="max">
        <route edges="E24 -E23 E1D1 D1D0 E31 -E34 E35 E38"/>
    </vehicle>
    <vehicle id="82" type="td_0" depart="31.00" departLane="best" departPos="random" departSpeed="max">
        <route edges="-E0 D4D3 D3C3 C3B3 B3B2 B2B1 B1A1 E45 -E46"/>
    </vehicle>
    <vehicle id="83" type="td_0" depart="31.00" departLane="best" departPos="random" departSpeed="max">
        <route edges="E33 -E22 E1D1 D1C1 C1B1 B1A1 E45 -E46 -E43 -E40"/>
    </vehicle>
    <vehicle id="84" type="td_0" depart="32.00" departLane="best" departPos="random" departSpeed="max">
        <route edges="-E30 D0D1 D1C1 C1B1 B1B0 E40 E43"/>
    </vehicle>
    <vehicle id="85" type="td_0" depart="32.00" departLane="best" departPos="random" departSpeed="max">
        <route edges="-E11 -E9 -E5 E4 E6 -E7 D4D3 D3D2 D2D1 D1D0 E31"/>
    </vehicle>
    <vehicle id="86" type="td_0" depart="32.00" departLane="best" departPos="random" departSpeed="max">
        <route edges="-E49 A3B3 B3C3 C3D3 D3D4 E0"/>
    </vehicle>
    <vehicle id="87" type="td_0" depart="32.00" departLane="best" departPos="random" departSpeed="max">
        <route edges="-E27 -E26 E1D1 D1C1 C1B1 B1A1 A1B1"/>
    </vehicle>
    <vehicle id="88" type="td_0" depart="33.00" departLane="best" departPos="random" departSpeed="max">
        <route edges="D3C3 C3D3 D3D2 D2D3"/>
    </vehicle>
    <vehicle id="89" type="td_0" depart="33.00" departLane="best" departPos="random" departSpeed="max">
        <route edges="C3C4 C4C3 C3B3 B3B2 B2B1 B1A1 E45 -E46 -E43"/>
    </vehicle>
    <vehicle id="90" type="td_0" depart="33.00" departLane="best" departPos="random" departSpeed="max">
        <route edges="-E14 -E9 -E5 E4 E6 -E7 D4D3 D3D2 D2C2"/>
    </vehicle>
    <vehicle id="91" type="td_0" depart="33.00" departLane="best" departPos="random" departSpeed="max">
        <route edges="D3D4 D4D3 D3C3 C3B3 B3B2 B2B1 B1B0 E39 E41 -E36"/>
    </vehicle>
    <vehicle id="92" type="td_0" depart="34.00" departLane="best" departPos="random" departSpeed="max">
        <route edges="E10 E12 -E11 -E9 -E5 -E3 B4B3 B3B2 B2B1 B1B0 E39 E41 -E36 E38"/>
    </vehicle>
    <vehicle id="93" type="td_0" depart="34.00" departLane="best" departPos="random" departSpeed="max">
        <route edges="D2E2 E2D2 D2D3 D3C3 C3C4 E1 E6"/>
    </vehicle>
    <vehicle id="94" type="td_0" depart="34.00" departLane="best" departPos="random" departSpeed="max">
        <route edges="-E14 -E9 -E5 -E3 B4B3 B3B2 B2B1 B1B0 E39 E41 -E36 -E35"/>
    </vehicle>
    <vehicle id="95" type="td_0" depart="34.00" departLane="best" departPos="random" departSpeed="max">
        <route edges="E1 E6 -E7 D4D3 D3E3"/>
    </vehicle>
    <vehicle id="96" type="td_0" depart="34.00" departLane="best" departPos="random" departSpeed="max">
        <route edges="B1A1 A1B1 B1C1 C1C0 E35 E36 -E41"/>
    </vehicle>
    <vehicle id="97" type="td_0" depart="35.00" departLane="best" departPos="random" departSpeed="max">
        <route edges="E23 -E24 E2D2 D2D1 D1C1 C1B1 B1A1 E44 E50"/>
    </vehicle>
    <vehicle id="98" type="td_0" depart="35.00" departLane="best" departPos="random" departSpeed="max">
        <route edges="-E8 -E7 D4D3 D3E3"/>
    </vehicle>
    <vehicle id="99" type="td_0" depart="35.00" departLane="best" departPos="random" departSpeed="max">
        <route edges="-E22 E23 -E24 E2D2 D2D3 D3D4 E0 E16"/>
    </vehicle>
    <vehicle id="100" type="td_0" depart="35.00" departLane="best" departPos="random" departSpeed="max">
        <route edges="C3C2 C2C3 C3C4 E1 E6"/>
    </vehicle>
    <vehicle id="101" type="td_0" depart="36.00" departLane="best" departPos="random" departSpeed="max">
        <route edges="D1E1 E1D1 D1D2"/>
    </vehicle>
    <vehicle id="102" type="td_0" depart="36.00" departLane="best" departPos="random" departSpeed="max">
        <route edges="E12 -E11 -E9 -E5 -E3 B4B3 B3B2 B2B1 B1B0 E39"/>
    </vehicle>
    <vehicle id="103" type="td_0" depart="36.00" departLane="best" departPos="random" departSpeed="max">
        <route edges="E47 E51 -E50 -E44 A1B1 B1C1 C1D1 D1D0 E31 -E34"/>
    </vehicle>
    <vehicle id="104" type="td_0" depart="36.00" departLane="best" departPos="random" departSpeed="max">
        <route edges="D3E3 E3D3 D3D2 D2E2 E24 -E23 E26 E27"/>
    </vehicle>
    <vehicle id="105" type="td_0" depart="37.00" departLane="best" departPos="random" departSpeed="max">
        <route edges="C2D2 D2C2 C2B2 B2A2 E47 E51 -E50"/>
    </vehicle>
    <vehicle id="106" type="td_0" depart="37.00" departLane="best" departPos="random" departSpeed="max">
        <route edges="E6 -E7 D4D3 D3D2 D2D1 D1D0 D0D1"/>
    </vehicle>
    <vehicle id="107" type="td_0" depart="37.00" departLane="best" departPos="random" departSpeed="max">
        <route edges="-E29 -E28 -E25 E2D2 D2C2 C2B2 B2B1"/>
    </vehicle>
    <vehicle id="108" type="td_0" depart="37.00" departLane="best" departPos="random" departSpeed="max">
        <route edges="B1B2 B2B3 B3C3 C3D3 D3E3 E3D3"/>
    </vehicle>
    <vehicle id="109" type="td_0" depart="38.00" departLane="best" departPos="random" departSpeed="max">
        <route edges="-E13 -E12 -E10 -E2 B4B3 B3A3 E49 E54"/>
    </vehicle>
    <vehicle id="110" type="td_0" depart="38.00" departLane="best" departPos="random" departSpeed="max">
        <route edges="-E25 E2D2 D2C2 C2C1"/>
    </vehicle>
    <vehicle id="111" type="td_0" depart="38.00" departLane="best" departPos="random" departSpeed="max">
        <route edges="E5 E9 E11 -E12 -E10 -E2 B4B3 B3B2 B2B3"/>
    </vehicle>
    <vehicle id="112" type="td_0" depart="39.00" departLane="best" departPos="random" departSpeed="max">
        <route edges="-E35 C0C1 C1C2 C2C3 C3C4 E1 -E4 E5 E9 E11 -E12 -E10 -E2"/>
    </vehicle>
    <vehicle id="113" type="td_0" depart="39.00" departLane="best" departPos="random" departSpeed="max">
        <route edges="B3B4 B4B3 B3B2 B2B1 B1C1 C1C0"/>
    </vehicle>
    <vehicle id="114" type="td_0" depart="39.00" departLane="best" departPos="random" departSpeed="max">
        <route edges="-E33 -E32 -E30 D0D1 D1C1 C1B1 B1B2 B2B1"/>
    </vehicle>
    <vehicle id="115" type="td_0" depart="39.00" departLane="best" departPos="random" departSpeed="max">
        <route edges="-E42 -E41 -E39 B0B1 B1B2 B2B3 B3B4 E2"/>
    </vehicle>
    <vehicle id="116" type="td_0" depart="40.00" departLane="best" departPos="random" departSpeed="max">
        <route edges="E36 -E41 -E39 B0B1 B1C1 C1C0"/>
    </vehicle>
    <vehicle id="117" type="td_0" depart="40.00" departLane="best" departPos="random" departSpeed="max">
        <route edges="-E15 -E4 E5"/>
    </vehicle>
    <vehicle id="118" type="td_0" depart="40.00" departLane="best" departPos="random" departSpeed="max">
        <route edges="D1C1 C1C0 E34 -E31"/>
    </vehicle>
    <vehicle id="119" type="td_0" depart="40.00" departLane="best" departPos="random" departSpeed="max">
        <route edges="-E35 C0C1 C1B1 B1A1 A1B1"/>
    </vehicle>
    <vehicle id="120" type="td_0" depart="40.00" departLane="best" departPos="random" departSpeed="max">
        <route edges="D1C1 C1B1 B1B2 B2B3"/>
    </vehicle>
    <vehicle id="121" type="td_0" depart="41.00" departLane="best" departPos="random" departSpeed="max">
        <route edges="-E4 -E3 B4B3 B3C3 C3C2"/>
    </vehicle>
    <vehicle id="122" type="td_0" depart="41.00" departLane="best" departPos="random" departSpeed="max">
        <route edges="-E49 A3B3 B3B4 E3"/>
    </vehicle>
    <vehicle id="123" type="td_0" depart="41.00" departLane="best" departPos="random" departSpeed="max">
        <route edges="B3B4 B4B3 B3B2 B2B1 B1B2"/>
    </vehicle>
    <vehicle id="124" type="td_0" depart="42.00" departLane="best" departPos="random" departSpeed="max">
        <route edges="A2B2 B2B3 B3C3 C3B3"/>
    </vehicle>
    <vehicle id="125" type="td_0" depart="42.00" departLane="best" departPos="random" departSpeed="max">
        <route edges="E39"/>
    </vehicle>
    <vehicle id="126" type="td_0" depart="42.00" departLane="best" departPos="random" departSpeed="max">
        <route edges="-E16 -E0 D4D3 D3E3 E19 E20"/>
    </vehicle>
    <vehicle id="127" type="td_0" depart="43.00" departLane="best" departPos="random" departSpeed="max">
        <route edges="C1C0 C0C1 C1B1 B1B0 E40 E43 E46"/>
    </vehicle>
    <vehicle id="128" type="td_0" depart="43.00" departLane="best" departPos="random" departSpeed="max">
        <route edges="A1B1 B1C1 C1D1 D1E1 E23 -E24"/>
    </vehicle>
    <vehicle id="129" type="td_0" depart="43.00" departLane="best" departPos="random" departSpeed="max">
        <route edges="-E30 D0D1 D1D2 D2D3 D3E3 E19 E20"/>
    </vehicle>
    <vehicle id="130" type="td_0" depart="43.00" departLane="best" departPos="random" departSpeed="max">
        <route edges="E50 -E51 -E47 A2B2 B2B1 B1C1 C1D1 D1D0 E30 E32"/>
    </vehicle>
    <vehicle id="131" type="td_0" depart="43.00" departLane="best" departPos="random" departSpeed="max">
        <route edges="-E43 -E40 B0B1 B1A1 E44 E50 -E51 E52 -E49"/>
    </vehicle>
    <vehicle id="132" type="td_0" depart="44.00" departLane="best" departPos="random" departSpeed="max">
        <route edges="E36 -E41 -E39 B0B1 B1B2 B2A2 -E48 E49"/>
    </vehicle>
    <vehicle id="133" type="td_0" depart="44.00" departLane="best" departPos="random" departSpeed="max">
        <route edges="-E29 -E28 -E25 E2D2 D2D1 D1C1 C1B1 B1B2"/>
    </vehicle>
    <vehicle id="134" type="td_0" depart="45.00" departLane="best" departPos="random" departSpeed="max">
        <route edges="-E13 -E12 -E10 -E2 B4B3 B3A3 E49 -E52 E51 -E50"/>
    </vehicle>
    <vehicle id="135" type="td_0" depart="45.00" departLane="best" departPos="random" departSpeed="max">
        <route edges="E44 E50 -E51 -E47 A2B2 B2B1 B1C1 C1D1"/>
    </vehicle>
    <vehicle id="136" type="td_0" depart="45.00" departLane="best" departPos="random" departSpeed="max">
        <route edges="C2D2 D2D1 D1D0 E30 E32 E33 -E22"/>
    </vehicle>
    <vehicle id="137" type="td_0" depart="46.00" departLane="best" departPos="random" departSpeed="max">
        <route edges="D3D2 D2D3 D3D4 E7 -E6 -E4"/>
    </vehicle>
    <vehicle id="138" type="td_0" depart="47.00" departLane="best" departPos="random" departSpeed="max">
        <route edges="-E38 -E35 E34 -E31 D0D1 D1E1 E26 E27"/>
    </vehicle>
    <vehicle id="139" type="td_0" depart="47.00" departLane="best" departPos="random" departSpeed="max">
        <route edges="C1D1 D1C1 C1B1 B1A1 E44 E50 -E51 E52 -E49"/>
    </vehicle>
    <vehicle id="140" type="td_0" depart="47.00" departLane="best" departPos="random" departSpeed="max">
        <route edges="-E48 A3B3 B3B2 B2B1 B1A1 E45 -E46 -E43 -E40"/>
    </vehicle>
    <vehicle id="141" type="td_0" depart="47.00" departLane="best" departPos="random" departSpeed="max">
        <route edges="E11 -E12 -E10 -E2 B4B3 B3B4 E2 E10 E12"/>
    </vehicle>
    <vehicle id="142" type="td_0" depart="48.00" departLane="best" departPos="random" departSpeed="max">
        <route edges="D2C2 C2B2 B2A2 E47 E52 -E49"/>
    </vehicle>
    <vehicle id="143" type="td_0" depart="48.00" departLane="best" departPos="random" departSpeed="max">
        <route edges="-E43 -E40 B0B1 B1C1 C1D1 D1D2 D2E2"/>
    </vehicle>
    <vehicle id="144" type="td_0" depart="49.00" departLane="best" departPos="random" departSpeed="max">
        <route edges="E51 -E50 -E44 A1B1 B1B2 B2B3 B3B4 E2 E10"/>
    </vehicle>
    <vehicle id="145" type="td_0" depart="50.00" departLane="best" departPos="random" departSpeed="max">
        <route edges="E10 E12 -E11 -E9 -E5 E4 E6 -E7 D4D3 D3D2 D2E2 E24 -E23 E26 E27 -E29 -E28"/>
    </vehicle>
    <vehicle id="146" type="td_0" depart="50.00" departLane="best" departPos="random" departSpeed="max">
        <route edges="B2C2 C2C1 C1C0 E34 -E31 D0D1"/>
    </vehicle>
    <vehicle id="147" type="td_0" depart="52.00" departLane="best" departPos="random" departSpeed="max">
        <route edges="-E52 -E47 A2B2 B2C2 C2B2"/>
    </vehicle>
    <vehicle id="148" type="td_0" depart="52.00" departLane="best" departPos="random" departSpeed="max">
        <route edges="-E6 -E4 -E3 B4B3 B3A3 E49"/>
    </vehicle>
    <vehicle id="149" type="td_0" depart="52.00" departLane="best" departPos="random" departSpeed="max">
        <route edges="C3C2 C2D2 D2E2 E24 -E23 E26 E27 -E29 -E28"/>
    </vehicle>
    <vehicle id="150" type="td_0" depart="52.00" departLane="best" departPos="random" departSpeed="max">
        <route edges="E10 E12 -E11 -E9 -E5 -E3 B4B3 B3A3"/>
    </vehicle>
    <vehicle id="151" type="td_0" depart="52.00" departLane="best" departPos="random" departSpeed="max">
        <route edges="-E31 D0D1 D1D2 D2D3 D3E3 E19"/>
    </vehicle>
    <vehicle id="152" type="td_0" depart="53.00" departLane="best" departPos="random" departSpeed="max">
        <route edges="B2B3 B3B2 B2B1 B1C1 C1D1 D1D0 E31 -E34"/>
    </vehicle>
    <vehicle id="153" type="td_0" depart="53.00" departLane="best" departPos="random" departSpeed="max">
        <route edges="C3C2 C2C1 C1C0 E35 E38"/>
    </vehicle>
    <vehicle id="154" type="td_0" depart="53.00" departLane="best" departPos="random" departSpeed="max">
        <route edges="E45 -E46 -E43 -E40 B0B1 B1B2 B2B3 B3C3 C3D3 D3D4 E7"/>
    </vehicle>
    <vehicle id="155" type="td_0" depart="54.00" departLane="best" departPos="random" departSpeed="max">
        <route edges="D0D1 D1C1 C1B1 B1B0 E39 E41 -E36"/>
    </vehicle>
    <vehicle id="156" type="td_0" depart="54.00" departLane="best" departPos="random" departSpeed="max">
        <route edges="-E11 -E9 -E5 E4 E6 -E7 D4D3 D3D2 D2E2 E24 -E23 E22 -E33"/>
    </vehicle>
    <vehicle id="157" type="td_0" depart="54.00" departLane="best" departPos="random" departSpeed="max">
        <route edges="B3C3 C3D3 D3E3 E18"/>
    </vehicle>
    <vehicle id="158" type="td_0" depart="54.00" departLane="best" departPos="random" departSpeed="max">
        <route edges="C1D1 D1D2 D2D3 D3D4 E7 -E6 -E4"/>
    </vehicle>
    <vehicle id="159" type="td_0" depart="55.00" departLane="best" departPos="random" departSpeed="max">
        <route edges="A3B3 B3C3 C3C2"/>
    </vehicle>