<?xml version='1.0' encoding='utf-8'?>
<routes xmlns:xsi="http://www.w3.org/2001/XMLSchema-instance" xsi:noNamespaceSchemaLocation="http://sumo.dlr.de/xsd/routes_file.xsd">
  <trip id="0" depart="0.00" from="850475200" to="1270367191#2" type="td_0" departLane="best" departSpeed="max" departPos="free" />
  <trip id="1" depart="0.00" from="-442885355#1" to="850699983#1" type="td_0" departLane="best" departSpeed="max" departPos="free" />
  <trip id="2" depart="0.00" from="152227691#6" to="1307054560#4" type="td_0" departLane="best" departSpeed="max" departPos="free" />
  <trip id="3" depart="0.00" from="1119166765#1" to="-31905181#3" type="td_0" departLane="best" departSpeed="max" departPos="free" />
  <trip id="4" depart="0.00" from="721131963#1" to="1149579536#4" type="td_0" departLane="best" departSpeed="max" departPos="free" />
  <trip id="xh_223_4" depart="0.50" from="721131963#1" to="1149579536#4" type="td_0" departLane="best" departSpeed="max" departPos="free" />
  <trip id="xh_663_3" depart="0.50" from="1119166765#1" to="-31905181#3" type="td_0" departLane="best" departSpeed="max" departPos="free" />
  <trip id="xh_3552_2" depart="0.50" from="152227691#6" to="1307054560#4" type="td_0" departLane="best" departSpeed="max" departPos="free" />
  <trip id="5" depart="1.00" from="722464595" to="155315695#2" type="td_0" departLane="best" departSpeed="max" departPos="free" />
  <trip id="6" depart="1.00" from="350424622#0" to="152227691#9" type="td_0" departLane="best" departSpeed="max" departPos="free" />
  <trip id="7" depart="1.00" from="155775198#1" to="721131946#8" type="td_0" departLane="best" departSpeed="max" departPos="free" />
  <trip id="8" depart="3.00" from="155775198#0" to="-1307054560#0" type="td_0" departLane="best" departSpeed="max" departPos="free" />
  <trip id="9" depart="4.00" from="-1117528626#1" to="1119166765#12" type="td_0" departLane="best" departSpeed="max" departPos="free" />
  <trip id="10" depart="4.00" from="152227691#6" to="721131937#8" type="td_0" departLane="best" departSpeed="max" departPos="free" />
  <trip id="xh_1242_9" depart="4.50" from="-1117528626#1" to="1119166765#12" type="td_0" departLane="best" departSpeed="max" departPos="free" />
  <trip id="xh_3500_10" depart="4.50" from="152227691#6" to="721131937#8" type="td_0" departLane="best" departSpeed="max" departPos="free" />
  <trip id="11" depart="5.00" from="721131960#1" to="1149580107#1" type="td_0" departLane="best" departSpeed="max" departPos="free" />
  <trip id="12" depart="5.00" from="-722464597#1" to="721131954#2" type="td_0" departLane="best" departSpeed="max" departPos="free" />
  <trip id="13" depart="5.00" from="850475200" to="-723990057#2" type="td_0" departLane="best" departSpeed="max" departPos="free" />
  <trip id="14" depart="5.00" from="-1149578943" to="-442885101#1" type="td_0" departLane="best" departSpeed="max" departPos="free" />
  <trip id="15" depart="5.00" from="-442885357" to="721131963#1" type="td_0" departLane="best" departSpeed="max" departPos="free" />
  <trip id="xh_620_13" depart="5.50" from="850475200" to="-723990057#2" type="td_0" departLane="best" departSpeed="max" departPos="free" />
  <trip id="xh_2156_12" depart="5.50" from="-722464597#1" to="721131954#2" type="td_0" departLane="best" departSpeed="max" departPos="free" />
  <trip id="16" depart="6.00" from="-1270367191#2" to="-155315680#1" type="td_0" departLane="best" departSpeed="max" departPos="free" />
  <trip id="17" depart="6.00" from="155775198#0" to="1307054560#0" type="td_0" departLane="best" departSpeed="max" departPos="free" />
  <trip id="xh_366_17" depart="6.50" from="155775198#0" to="1307054560#0" type="td_0" departLane="best" departSpeed="max" departPos="free" />
  <trip id="18" depart="7.00" from="721126897#12" to="721131937#9" type="td_0" departLane="best" departSpeed="max" departPos="free" />
  <trip id="19" depart="7.00" from="155315688#1" to="1149579537#0" type="td_0" departLane="best" departSpeed="max" departPos="free" />
  <trip id="20" depart="7.00" from="152227691#10" to="442885101#2" type="td_0" departLane="best" departSpeed="max" departPos="free" />
  <trip id="21" depart="8.00" from="155315695#4" to="721131946#5" type="td_0" departLane="best" departSpeed="max" departPos="free" />
  <trip id="xh_1136_21" depart="8.50" from="155315695#4" to="721131946#5" type="td_0" departLane="best" departSpeed="max" departPos="free" />
  <trip id="22" depart="9.00" from="721126897#12" to="-850817946" type="td_0" departLane="best" departSpeed="max" departPos="free" />
  <trip id="23" depart="9.00" from="-852629939" to="721131954#2" type="td_0" departLane="best" departSpeed="max" departPos="free" />
  <trip id="24" depart="9.00" from="721131946#14" to="1307054560#1" type="td_0" departLane="best" departSpeed="max" departPos="free" />
  <trip id="xh_1620_23" depart="9.50" from="-852629939" to="721131954#2" type="td_0" departLane="best" departSpeed="max" departPos="free" />
  <trip id="xh_2777_24" depart="9.50" from="721131946#14" to="1307054560#1" type="td_0" departLane="best" departSpeed="max" departPos="free" />
  <trip id="25" depart="10.00" from="406038877" to="1307054560#4" type="td_0" departLane="best" departSpeed="max" departPos="free" />
  <trip id="26" depart="11.00" from="-442885101#0" to="-155315682" type="td_0" departLane="best" departSpeed="max" departPos="free" />
  <trip id="27" depart="11.00" from="-721131940" to="592032565" type="td_0" departLane="best" departSpeed="max" departPos="free" />
  <trip id="28" depart="11.00" from="-442885101#0" to="152227691#6" type="td_0" departLane="best" departSpeed="max" departPos="free" />
  <trip id="xh_199_26" depart="11.50" from="-442885101#0" to="-155315682" type="td_0" departLane="best" departSpeed="max" departPos="free" />
  <trip id="xh_2810_28" depart="11.50" from="-442885101#0" to="152227691#6" type="td_0" departLane="best" departSpeed="max" departPos="free" />
  <trip id="29" depart="12.00" from="721126897#7" to="1149579537#1" type="td_0" departLane="best" departSpeed="max" departPos="free" />
  <trip id="30" depart="12.00" from="-155315719#8" to="152227691#9" type="td_0" departLane="best" departSpeed="max" departPos="free" />
  <trip id="xh_499_29" depart="12.50" from="721126897#7" to="1149579537#1" type="td_0" departLane="best" departSpeed="max" departPos="free" />
  <trip id="31" depart="13.00" from="-1149578943" to="-205021436#1" type="td_0" departLane="best" departSpeed="max" departPos="free" />
  <trip id="32" depart="13.00" from="1270367191#0" to="1149579537#0" type="td_0" departLane="best" departSpeed="max" departPos="free" />
  <trip id="33" depart="13.00" from="152227691#5" to="721131958#1" type="td_0" departLane="best" departSpeed="max" departPos="free" />
  <trip id="xh_3599_33" depart="13.50" from="152227691#5" to="721131958#1" type="td_0" departLane="best" departSpeed="max" departPos="free" />
  <trip id="34" depart="14.00" from="850817945" to="152227691#0" type="td_0" departLane="best" departSpeed="max" departPos="free" />
  <trip id="35" depart="14.00" from="1149579537#6" to="721126897#13" type="td_0" departLane="best" departSpeed="max" departPos="free" />
  <trip id="xh_3634_34" depart="14.50" from="850817945" to="152227691#0" type="td_0" departLane="best" departSpeed="max" departPos="free" />
  <trip id="36" depart="15.00" from="-155315719#0" to="152227691#0" type="td_0" departLane="best" departSpeed="max" departPos="free" />
  <trip id="xh_3254_36" depart="15.50" from="-155315719#0" to="152227691#0" type="td_0" departLane="best" departSpeed="max" departPos="free" />
  <trip id="37" depart="16.00" from="1117528627#0" to="155315688#1" type="td_0" departLane="best" departSpeed="max" departPos="free" />
  <trip id="38" depart="16.00" from="721131934#1" to="721131954#2" type="td_0" departLane="best" departSpeed="max" departPos="free" />
  <trip id="39" depart="16.00" from="-852595092" to="851342124" type="td_0" departLane="best" departSpeed="max" departPos="free" />
  <trip id="xh_3329_39" depart="16.50" from="-852595092" to="851342124" type="td_0" departLane="best" departSpeed="max" departPos="free" />
  <trip id="xh_3598_38" depart="16.50" from="721131934#1" to="721131954#2" type="td_0" departLane="best" departSpeed="max" departPos="free" />
  <trip id="40" depart="17.00" from="721131963#3" to="778021896" type="td_0" departLane="best" departSpeed="max" departPos="free" />
  <trip id="41" depart="17.00" from="-1135316108" to="721126897#12" type="td_0" departLane="best" departSpeed="max" departPos="free" />
  <trip id="42" depart="18.00" from="-850817945" to="722464597#2" type="td_0" departLane="best" departSpeed="max" departPos="free" />
  <trip id="43" depart="18.00" from="1149580108" to="1149580308" type="td_0" departLane="best" departSpeed="max" departPos="free" />
  <trip id="xh_2123_43" depart="18.50" from="1149580108" to="1149580308" type="td_0" departLane="best" departSpeed="max" departPos="free" />
  <trip id="xh_2641_42" depart="18.50" from="-850817945" to="722464597#2" type="td_0" departLane="best" departSpeed="max" departPos="free" />
  <trip id="44" depart="19.00" from="721126897#12" to="-155315719#0" type="td_0" departLane="best" departSpeed="max" departPos="free" />
  <trip id="45" depart="19.00" from="-155315695#3" to="721126897#14" type="td_0" departLane="best" departSpeed="max" departPos="free" />
  <trip id="46" depart="19.00" from="-155315695#3" to="-1149580110" type="td_0" departLane="best" departSpeed="max" departPos="free" />
  <trip id="xh_722_45" depart="19.50" from="-155315695#3" to="721126897#14" type="td_0" departLane="best" departSpeed="max" departPos="free" />
  <trip id="47" depart="20.00" from="1307054560#5" to="1149580107#3" type="td_0" departLane="best" departSpeed="max" departPos="free" />
  <trip id="48" depart="20.00" from="721131937#10" to="271412010" type="td_0" departLane="best" departSpeed="max" departPos="free" />
  <trip id="xh_808_48" depart="20.50" from="721131937#10" to="271412010" type="td_0" departLane="best" departSpeed="max" departPos="free" />
  <trip id="49" depart="21.00" from="152227691#6" to="1149578943" type="td_0" departLane="best" departSpeed="max" departPos="free" />
  <trip id="50" depart="21.00" from="-31905195#2" to="-155775198#6" type="td_0" departLane="best" departSpeed="max" departPos="free" />
  <trip id="xh_1773_50" depart="21.50" from="-31905195#2" to="-155775198#6" type="td_0" departLane="best" departSpeed="max" departPos="free" />
  <trip id="51" depart="22.00" from="722464591#3" to="155775198#5" type="td_0" departLane="best" departSpeed="max" departPos="free" />
  <trip id="52" depart="22.00" from="1149580107#4" to="721131963#3" type="td_0" departLane="best" departSpeed="max" departPos="free" />
  <trip id="53" depart="22.00" from="442885101#0" to="721131934#5" type="td_0" departLane="best" departSpeed="max" departPos="free" />
  <trip id="54" depart="22.00" from="721131960#4" to="721131937#6" type="td_0" departLane="best" departSpeed="max" departPos="free" />
  <trip id="xh_38_53" depart="22.50" from="442885101#0" to="721131934#5" type="td_0" departLane="best" departSpeed="max" departPos="free" />
  <trip id="xh_2965_52" depart="22.50" from="1149580107#4" to="721131963#3" type="td_0" departLane="best" departSpeed="max" departPos="free" />
  <trip id="xh_2980_54" depart="22.50" from="721131960#4" to="721131937#6" type="td_0" departLane="best" departSpeed="max" departPos="free" />
  <trip id="55" depart="23.00" from="-1149576119" to="721126897#14" type="td_0" departLane="best" departSpeed="max" departPos="free" />
  <trip id="xh_2705_55" depart="23.50" from="-1149576119" to="721126897#14" type="td_0" departLane="best" departSpeed="max" departPos="free" />
  <trip id="56" depart="24.00" from="1149579537#4" to="1149579536#5" type="td_0" departLane="best" departSpeed="max" departPos="free" />
  <trip id="57" depart="25.00" from="721131946#14" to="721131946#11" type="td_0" departLane="best" departSpeed="max" departPos="free" />
  <trip id="58" depart="26.00" from="-723990057#5" to="-721131943" type="td_0" departLane="best" departSpeed="max" departPos="free" />
  <trip id="59" depart="26.00" from="708790255#0" to="721131938" type="td_0" departLane="best" departSpeed="max" departPos="free" />
  <trip id="60" depart="26.00" from="721131946#11" to="1056899464#0" type="td_0" departLane="best" departSpeed="max" departPos="free" />
  <trip id="61" depart="26.00" from="-155315683" to="708790255#0" type="td_0" departLane="best" departSpeed="max" departPos="free" />
  <trip id="xh_282_58" depart="26.50" from="-723990057#5" to="-721131943" type="td_0" departLane="best" departSpeed="max" departPos="free" />
  <trip id="62" depart="27.00" from="721131954#0" to="721126897#14" type="td_0" departLane="best" departSpeed="max" departPos="free" />
  <trip id="xh_1830_62" depart="27.50" from="721131954#0" to="721126897#14" type="td_0" departLane="best" departSpeed="max" departPos="free" />
  <trip id="63" depart="28.00" from="724005155#6" to="1149580107#3" type="td_0" departLane="best" departSpeed="max" departPos="free" />
  <trip id="64" depart="28.00" from="-1307054560#3" to="-723990054" type="td_0" departLane="best" departSpeed="max" departPos="free" />
  <trip id="65" depart="28.00" from="591704635#3" to="722464592" type="td_0" departLane="best" departSpeed="max" departPos="free" />
  <trip id="66" depart="28.00" from="-155315719#2" to="155315678#0" type="td_0" departLane="best" departSpeed="max" departPos="free" />
  <trip id="xh_465_64" depart="28.50" from="-1307054560#3" to="-723990054" type="td_0" departLane="best" departSpeed="max" departPos="free" />
  <trip id="xh_1461_66" depart="28.50" from="-155315719#2" to="155315678#0" type="td_0" departLane="best" departSpeed="max" departPos="free" />
  <trip id="xh_1839_63" depart="28.50" from="724005155#6" to="1149580107#3" type="td_0" departLane="best" departSpeed="max" departPos="free" />
  <trip id="67" depart="29.00" from="152227697#3" to="1119166765#1" type="td_0" departLane="best" departSpeed="max" departPos="free" />
  <trip id="68" depart="29.00" from="100954163#9" to="31905195#2" type="td_0" departLane="best" departSpeed="max" departPos="free" />
  <trip id="69" depart="29.00" from="-934254484#0" to="-1149580308" type="td_0" departLane="best" departSpeed="max" departPos="free" />
  <trip id="70" depart="30.00" from="-1117528626#1" to="-721131941" type="td_0" departLane="best" departSpeed="max" departPos="free" />
  <trip id="71" depart="30.00" from="-850699983#0" to="-850699983#0" type="td_0" departLane="best" departSpeed="max" departPos="free" />
  <trip id="72" depart="31.00" from="721131954#2" to="-163652291" type="td_0" departLane="best" departSpeed="max" departPos="free" />
  <trip id="73" depart="31.00" from="721131946#5" to="152227691#8" type="td_0" departLane="best" departSpeed="max" departPos="free" />
  <trip id="74" depart="34.00" from="722466951" to="-724005155#8" type="td_0" departLane="best" departSpeed="max" departPos="free" />
  <trip id="75" depart="34.00" from="721131960#4" to="1149580308" type="td_0" departLane="best" departSpeed="max" departPos="free" />
  <trip id="76" depart="34.00" from="-442885101#0" to="721131937#6" type="td_0" departLane="best" departSpeed="max" departPos="free" />
  <trip id="77" depart="34.00" from="1149579536#7" to="152227691#4" type="td_0" departLane="best" departSpeed="max" departPos="free" />
  <trip id="xh_439_76" depart="34.50" from="-442885101#0" to="721131937#6" type="td_0" departLane="best" departSpeed="max" departPos="free" />
  <trip id="xh_2666_75" depart="34.50" from="721131960#4" to="1149580308" type="td_0" departLane="best" departSpeed="max" departPos="free" />
  <trip id="xh_2971_74" depart="34.50" from="722466951" to="-724005155#8" type="td_0" departLane="best" departSpeed="max" departPos="free" />
  <trip id="xh_3018_77" depart="34.50" from="1149579536#7" to="152227691#4" type="td_0" departLane="best" departSpeed="max" departPos="free" />
  <trip id="78" depart="35.00" from="721131937#12" to="100954129#0" type="td_0" departLane="best" departSpeed="max" departPos="free" />
  <trip id="79" depart="36.00" from="152227691#2" to="-722466950" type="td_0" departLane="best" departSpeed="max" departPos="free" />
  <trip id="80" depart="36.00" from="721131960#1" to="591704635#3" type="td_0" departLane="best" departSpeed="max" departPos="free" />
  <trip id="81" depart="36.00" from="708790255#0" to="1135316109" type="td_0" departLane="best" departSpeed="max" departPos="free" />
  <trip id="xh_512_79" depart="36.50" from="152227691#2" to="-722466950" type="td_0" departLane="best" departSpeed="max" departPos="free" />
  <trip id="82" depart="37.00" from="155315719#3" to="934254484#1" type="td_0" departLane="best" departSpeed="max" departPos="free" />
  <trip id="83" depart="37.00" from="163652291" to="152227691#6" type="td_0" departLane="best" departSpeed="max" departPos="free" />
  <trip id="84" depart="37.00" from="31905190#0" to="721131963#0" type="td_0" departLane="best" departSpeed="max" departPos="free" />
  <trip id="85" depart="37.00" from="205021436#1" to="155315688#1" type="td_0" departLane="best" departSpeed="max" departPos="free" />
  <trip id="86" depart="37.00" from="721131960#1" to="721131932" type="td_0" departLane="best" departSpeed="max" departPos="free" />
  <trip id="xh_990_83" depart="37.50" from="163652291" to="152227691#6" type="td_0" departLane="best" departSpeed="max" departPos="free" />
  <trip id="xh_3197_86" depart="37.50" from="721131960#1" to="721131932" type="td_0" departLane="best" departSpeed="max" departPos="free" />
  <trip id="87" depart="38.00" from="-155315682" to="100954163#9" type="td_0" departLane="best" departSpeed="max" departPos="free" />
  <trip id="88" depart="38.00" from="1149578943" to="1149579536#1" type="td_0" departLane="best" departSpeed="max" departPos="free" />
  <trip id="89" depart="38.00" from="721131938" to="155315683" type="td_0" departLane="best" departSpeed="max" departPos="free" />
  <trip id="90" depart="38.00" from="1270367191#2" to="152227691#5" type="td_0" departLane="best" departSpeed="max" departPos="free" />
  <trip id="91" depart="39.00" from="-1149580308" to="155315682" type="td_0" departLane="best" departSpeed="max" departPos="free" />
  <trip id="92" depart="39.00" from="-31905195#1" to="152227697#3" type="td_0" departLane="best" departSpeed="max" departPos="free" />
  <trip id="93" depart="39.00" from="-722464595" to="592032565" type="td_0" departLane="best" departSpeed="max" departPos="free" />
  <trip id="xh_2713_93" depart="39.50" from="-722464595" to="592032565" type="td_0" departLane="best" departSpeed="max" departPos="free" />
  <trip id="94" depart="40.00" from="852595092" to="721126897#7" type="td_0" departLane="best" departSpeed="max" departPos="free" />
  <trip id="95" depart="40.00" from="-1149576119" to="591704635#3" type="td_0" departLane="best" departSpeed="max" departPos="free" />
  <trip id="xh_183_94" depart="40.50" from="852595092" to="721126897#7" type="td_0" departLane="best" departSpeed="max" departPos="free" />
  <trip id="96" depart="41.00" from="721131963#3" to="724005155#4" type="td_0" departLane="best" departSpeed="max" departPos="free" />
  <trip id="97" depart="41.00" from="-850817946" to="152227691#13" type="td_0" departLane="best" departSpeed="max" departPos="free" />
  <trip id="xh_2983_97" depart="41.50" from="-850817946" to="152227691#13" type="td_0" departLane="best" departSpeed="max" departPos="free" />
  <trip id="98" depart="42.00" from="-155315719#1" to="721131946#6" type="td_0" departLane="best" departSpeed="max" departPos="free" />
  <trip id="99" depart="42.00" from="721131937#2" to="155315695#0" type="td_0" departLane="best" departSpeed="max" departPos="free" />
  <trip id="100" depart="43.00" from="218100268" to="-100954129#1" type="td_0" departLane="best" departSpeed="max" departPos="free" />
  <trip id="101" depart="43.00" from="1307054560#1" to="721126897#12" type="td_0" departLane="best" departSpeed="max" departPos="free" />
  <trip id="102" depart="43.00" from="721126897#4" to="-152227686#6" type="td_0" departLane="best" departSpeed="max" departPos="free" />
  <trip id="xh_1076_100" depart="43.50" from="218100268" to="-100954129#1" type="td_0" departLane="best" departSpeed="max" departPos="free" />
  <trip id="xh_3104_101" depart="43.50" from="1307054560#1" to="721126897#12" type="td_0" departLane="best" departSpeed="max" departPos="free" />
  <trip id="103" depart="44.00" from="723990057#3" to="-100954129#0" type="td_0" departLane="best" departSpeed="max" departPos="free" />
  <trip id="104" depart="44.00" from="-155775198#0" to="934254484#0" type="td_0" departLane="best" departSpeed="max" departPos="free" />
  <trip id="105" depart="44.00" from="-1149580110" to="1149579537#1" type="td_0" departLane="best" departSpeed="max" departPos="free" />
  <trip id="xh_938_103" depart="44.50" from="723990057#3" to="-100954129#0" type="td_0" departLane="best" departSpeed="max" departPos="free" />
  <trip id="106" depart="45.00" from="-442885101#0" to="-100954129#5" type="td_0" departLane="best" departSpeed="max" departPos="free" />
  <trip id="107" depart="46.00" from="-724005155#9" to="721131946#9" type="td_0" departLane="best" departSpeed="max" departPos="free" />
  <trip id="108" depart="47.00" from="721131966#0" to="-155775198#5" type="td_0" departLane="best" departSpeed="max" departPos="free" />
  <trip id="109" depart="47.00" from="721131938" to="857958820#1" type="td_0" departLane="best" departSpeed="max" departPos="free" />
  <trip id="xh_3678_109" depart="47.50" from="721131938" to="857958820#1" type="td_0" departLane="best" departSpeed="max" departPos="free" />
  <trip id="110" depart="48.00" from="721131937#0" to="721131937#6" type="td_0" departLane="best" departSpeed="max" departPos="free" />
  <trip id="111" depart="49.00" from="721131953" to="722466947" type="td_0" departLane="best" departSpeed="max" departPos="free" />
  <trip id="112" depart="49.00" from="-442885101#0" to="-721131941" type="td_0" departLane="best" departSpeed="max" departPos="free" />
  <trip id="xh_1273_112" depart="49.50" from="-442885101#0" to="-721131941" type="td_0" departLane="best" departSpeed="max" departPos="free" />
  <trip id="113" depart="50.00" from="721131963#0" to="721131946#3" type="td_0" departLane="best" departSpeed="max" departPos="free" />
  <trip id="114" depart="51.00" from="-31905195#1" to="-850817949" type="td_0" departLane="best" departSpeed="max" departPos="free" />
  <trip id="115" depart="51.00" from="152227691#1" to="721131946#11" type="td_0" departLane="best" departSpeed="max" departPos="free" />
  <trip id="xh_1061_115" depart="51.50" from="152227691#1" to="721131946#11" type="td_0" departLane="best" departSpeed="max" departPos="free" />
  <trip id="xh_1520_114" depart="51.50" from="-31905195#1" to="-850817949" type="td_0" departLane="best" departSpeed="max" departPos="free" />
  <trip id="116" depart="52.00" from="723990059" to="155315683" type="td_0" departLane="best" departSpeed="max" departPos="free" />
  <trip id="117" depart="52.00" from="721126897#7" to="-1149582046#3" type="td_0" departLane="best" departSpeed="max" departPos="free" />
  <trip id="118" depart="52.00" from="-155315680#1" to="-1270367191#2" type="td_0" departLane="best" departSpeed="max" departPos="free" />
  <trip id="119" depart="53.00" from="766326315" to="721131937#0" type="td_0" departLane="best" departSpeed="max" departPos="free" />
  <trip id="120" depart="53.00" from="724005155#10" to="850475200" type="td_0" departLane="best" departSpeed="max" departPos="free" />
  <trip id="121" depart="53.00" from="-482169086#8" to="-1149578943" type="td_0" departLane="best" departSpeed="max" departPos="free" />
  <trip id="122" depart="53.00" from="-1307054560#0" to="721131960#5" type="td_0" departLane="best" departSpeed="max" departPos="free" />
  <trip id="xh_352_120" depart="53.50" from="724005155#10" to="850475200" type="td_0" departLane="best" departSpeed="max" departPos="free" />
  <trip id="xh_1631_121" depart="53.50" from="-482169086#8" to="-1149578943" type="td_0" departLane="best" departSpeed="max" departPos="free" />
  <trip id="123" depart="54.00" from="721131946#3" to="721131934#4" type="td_0" departLane="best" departSpeed="max" departPos="free" />
  <trip id="124" depart="54.00" from="1119166765#6" to="721131937#1" type="td_0" departLane="best" departSpeed="max" departPos="free" />
  <trip id="125" depart="55.00" from="1149579537#0" to="-155315678#4" type="td_0" departLane="best" departSpeed="max" departPos="free" />
  <trip id="126" depart="55.00" from="-155315695#3" to="-724005155#4" type="td_0" departLane="best" departSpeed="max" departPos="free" />
  <trip id="xh_1353_125" depart="55.50" from="1149579537#0" to="-155315678#4" type="td_0" departLane="best" departSpeed="max" departPos="free" />
  <trip id="xh_3351_126" depart="55.50" from="-155315695#3" to="-724005155#4" type="td_0" departLane="best" departSpeed="max" departPos="free" />
  <trip id="127" depart="56.00" from="721131934#1" to="721131937#1" type="td_0" departLane="best" departSpeed="max" departPos="free" />
  <trip id="128" depart="56.00" from="1149581388" to="591704635#3" type="td_0" departLane="best" departSpeed="max" departPos="free" />
  <trip id="129" depart="56.00" from="721126897#7" to="-1117528627#1" type="td_0" departLane="best" departSpeed="max" departPos="free" />
  <trip id="130" depart="56.00" from="721131963#3" to="-722464595" type="td_0" departLane="best" departSpeed="max" departPos="free" />
  <trip id="131" depart="56.00" from="721131940" to="857958820#1" type="td_0" departLane="best" departSpeed="max" departPos="free" />
  <trip id="xh_1636_129" depart="56.50" from="721126897#7" to="-1117528627#1" type="td_0" departLane="best" departSpeed="max" departPos="free" />
  <trip id="xh_2828_128" depart="56.50" from="1149581388" to="591704635#3" type="td_0" departLane="best" departSpeed="max" departPos="free" />
  <trip id="132" depart="57.00" from="-155315680#1" to="152227691#4" type="td_0" departLane="best" departSpeed="max" departPos="free" />
  <trip id="133" depart="57.00" from="721131960#1" to="271412010" type="td_0" departLane="best" departSpeed="max" departPos="free" />
  <trip id="xh_2179_133" depart="57.50" from="721131960#1" to="271412010" type="td_0" departLane="best" departSpeed="max" departPos="free" />
  <trip id="xh_2938_132" depart="57.50" from="-155315680#1" to="152227691#4" type="td_0" departLane="best" departSpeed="max" departPos="free" />
  <trip id="134" depart="58.00" from="-850817946" to="1149579537#4" type="td_0" departLane="best" departSpeed="max" departPos="free" />
  <trip id="135" depart="58.00" from="721131937#8" to="-721131941" type="td_0" departLane="best" departSpeed="max" departPos="free" />
  <trip id="xh_2148_134" depart="58.50" from="-850817946" to="1149579537#4" type="td_0" departLane="best" departSpeed="max" departPos="free" />
  <trip id="136" depart="59.00" from="-721131962" to="-724005155#5" type="td_0" departLane="best" departSpeed="max" departPos="free" />
  <trip id="137" depart="59.00" from="155315694#3" to="-155315695#0" type="td_0" departLane="best" departSpeed="max" departPos="free" />
  <trip id="138" depart="59.00" from="721131943" to="721131937#0" type="td_0" departLane="best" departSpeed="max" departPos="free" />
  <trip id="139" depart="59.00" from="152227686#3" to="591704635#3" type="td_0" departLane="best" departSpeed="max" departPos="free" />
  <trip id="xh_2536_136" depart="59.50" from="-721131962" to="-724005155#5" type="td_0" departLane="best" departSpeed="max" departPos="free" />
  <trip id="xh_2984_137" depart="59.50" from="155315694#3" to="-155315695#0" type="td_0" departLane="best" departSpeed="max" departPos="free" />
  <trip id="140" depart="60.00" from="934254484#2" to="-724005155#8" type="td_0" departLane="best" departSpeed="max" departPos="free" />
  <trip id="141" depart="60.00" from="721131934#0" to="-723990057#4" type="td_0" departLane="best" departSpeed="max" departPos="free" />
  <trip id="xh_1007_141" depart="60.50" from="721131934#0" to="-723990057#4" type="td_0" departLane="best" departSpeed="max" departPos="free" />
  <trip id="xh_2988_140" depart="60.50" from="934254484#2" to="-724005155#8" type="td_0" departLane="best" departSpeed="max" departPos="free" />
  <trip id="142" depart="61.00" from="-152227697#3" to="721131937#5" type="td_0" departLane="best" departSpeed="max" departPos="free" />
  <trip id="143" depart="61.00" from="721131966#0" to="721131934#4" type="td_0" departLane="best" departSpeed="max" departPos="free" />
  <trip id="144" depart="61.00" from="-155315682" to="721131937#13" type="td_0" departLane="best" departSpeed="max" departPos="free" />
  <trip id="145" depart="64.00" from="-724005155#8" to="-1307054560#2" type="td_0" departLane="best" departSpeed="max" departPos="free" />
  <trip id="146" depart="65.00" from="-155315680#1" to="-723990057#4" type="td_0" departLane="best" departSpeed="max" departPos="free" />
  <trip id="147" depart="65.00" from="1119166764#0" to="155315694#3" type="td_0" departLane="best" departSpeed="max" departPos="free" />
  <trip id="148" depart="66.00" from="1119166765#1" to="1149579536#5" type="td_0" departLane="best" departSpeed="max" departPos="free" />
  <trip id="149" depart="66.00" from="1149579536#1" to="-155315695#0" type="td_0" departLane="best" departSpeed="max" departPos="free" />
  <trip id="xh_2022_149" depart="66.50" from="1149579536#1" to="-155315695#0" type="td_0" departLane="best" departSpeed="max" departPos="free" />
  <trip id="150" depart="68.00" from="-31905214" to="-723990057#6" type="td_0" departLane="best" departSpeed="max" departPos="free" />
  <trip id="151" depart="68.00" from="721131937#2" to="155315695#0" type="td_0" departLane="best" departSpeed="max" departPos="free" />