<?xml version="1.0" encoding="UTF-8"?>

<!-- generated on 2025-12-02 14:14:07.102346 by routeSampler.py v1_22_0+0002-63e50f52594
<configuration>
    <route-files value="D:/Cong viec tai VTS/4 Sumo thai nguyen/route_sampler/only_rou.xml"/>
    <edgedata-files value="D:/Cong viec tai VTS/4 Sumo thai nguyen/route_sampler/edgeData.xml"/>
    <output-file value="D:/Cong viec tai VTS/4 Sumo thai nguyen/rou_sampler.rou.xml"/>
    <attributes value="type=&quot;typedist&quot; departLane=&quot;best&quot; departPos=&quot;100&quot; "/>
</configuration>
-->

<routes xmlns:xsi="http://www.w3.org/2001/XMLSchema-instance" xsi:noNamespaceSchemaLocation="http://sumo.dlr.de/xsd/routes_file.xsd">
<!-- begin="0.0" end="900.0" -->
    <vehicle id="0" depart="0.23" type="typedist" departLane="best" departPos="100" >
        <route edges="gh1362547081 gb746290966#1"/>
    </vehicle>
    <vehicle id="1" depart="0.28" type="typedist" departLane="best" departPos="100" >
        <route edges="gm637922365 yh1221681662#1 gh-343737533#5 gm343737324#0 ym343737324#1 ym-343737324#2 ym-343737324#0"/>
    </vehicle>
    <vehicle id="2" depart="0.30" type="typedist" departLane="best" departPos="100" >
        <route edges="gh1362547081 rb1221681667#0 rb1221681667#3"/>
    </vehicle>
    <vehicle id="3" depart="0.50" type="typedist" departLane="best" departPos="100" >
        <route edges="gh343737533#3 ym-1075130526#1 y1221681662#5"/>
    </vehicle>
    <vehicle id="4" depart="0.55" type="typedist" departLane="best" departPos="100" >
        <route edges="gh1221681662#0.165 yh1221681662#1 gb1221681662#3"/>
    </vehicle>
    <vehicle id="5" depart="0.77" type="typedist" departLane="best" departPos="100" >
        <route edges="gm-704180166#1 yh-343737533#9 gh-343737533#5 ym-1075130526#1 y1221681662#5 gb746290966#1"/>
    </vehicle>
    <vehicle id="6" depart="0.90" type="typedist" departLane="best" departPos="100" >
        <route edges="yh1221681662#1 gb1221681662#3 yb1221681662#4 y1221681662#5 gb746290966#1"/>
    </vehicle>
    <vehicle id="7" depart="1.03" type="typedist" departLane="best" departPos="100" >
        <route edges="r888793511#0 y1362547077#1"/>
    </vehicle>
    <vehicle id="8" depart="1.12" type="typedist" departLane="best" departPos="100" >
        <route edges="gh1362547081 rb1221681667#0 rb1221681667#3 gm-704180166#2"/>
    </vehicle>
    <vehicle id="9" depart="1.19" type="typedist" departLane="best" departPos="100" >
        <route edges="gb1221681667#4"/>
    </vehicle>
    <vehicle id="10" depart="1.20" type="typedist" departLane="best" departPos="100" >
        <route edges="yb1221681662#4 y1221681662#5 gh-252631954 yh2526319540 rb1221681667#0"/>
    </vehicle>
    <vehicle id="11" depart="1.28" type="typedist" departLane="best" departPos="100" >
        <route edges="rh-921144236#1 gb1221681667#5 yh343737533#7 gm746291868#0"/>
    </vehicle>
    <vehicle id="12" depart="1.28" type="typedist" departLane="best" departPos="100" >
        <route edges="gh343737533#3 gm343737324#0 ym343737324#1"/>
    </vehicle>
    <vehicle id="13" depart="1.55" type="typedist" departLane="best" departPos="100" >
        <route edges="r888793511#0 gh-252631954"/>
    </vehicle>
    <vehicle id="14" depart="1.87" type="typedist" departLane="best" departPos="100" >
        <route edges="gb1221681667#4"/>
    </vehicle>
    <vehicle id="15" depart="3.03" type="typedist" departLane="best" departPos="100" >
        <route edges="gb1221681667#5 yh343737533#7 gh343737533#10 yh-343737533#13 yh-343737533#9"/>
    </vehicle>
    <vehicle id="16" depart="3.04" type="typedist" departLane="best" departPos="100" >
        <route edges="yh-343737533#9 gh-343737533#5 ym-1075130526#1 y1221681662#5 gh-252631954 yh2526319540 rb1221681667#0"/>
    </vehicle>
    <vehicle id="17" depart="3.05" type="typedist" departLane="best" departPos="100" >
        <route edges="gb1221681662#3 yb1221681662#4 y921160679 y-921158505 rb1221681667#3 gm-704180166#2"/>
    </vehicle>
    <vehicle id="18" depart="3.19" type="typedist" departLane="best" departPos="100" >
        <route edges="yh1221681662#1 gh-343737533#5 gh-343737533#3"/>
    </vehicle>
    <vehicle id="19" depart="3.28" type="typedist" departLane="best" departPos="100" >
        <route edges="yh2526319540 rb1221681667#0 rb1221681667#3 gb1221681667#4 gb1221681667#5 yh343737533#7"/>
    </vehicle>
    <vehicle id="20" depart="3.53" type="typedist" departLane="best" departPos="100" >
        <route edges="yh343737533#4 yh343737533#7 ym704180166#0 rh-921144236#1 gb1221681667#5 gb1221681667#7"/>
    </vehicle>
    <vehicle id="21" depart="3.62" type="typedist" departLane="best" departPos="100" >
        <route edges="rb1221681667#3 gb1221681667#4 gb1221681667#5 gh-343737533#5 gm343737324#0 ym343737324#1"/>
    </vehicle>
    <vehicle id="22" depart="3.65" type="typedist" departLane="best" departPos="100" >
        <route edges="gm-704180166#2 gm-704180166#1 yh-343737533#9 gh-343737533#5 ym-1075130526#1 y1221681662#5 y1362547077#1"/>
    </vehicle>
    <vehicle id="23" depart="3.78" type="typedist" departLane="best" departPos="100" >
        <route edges="yb1221681662#4 y921160679 y-921158505 rb1221681667#3 gb1221681667#4 gb1221681667#5 gb1221681667#7"/>
    </vehicle>
    <vehicle id="24" depart="3.94" type="typedist" departLane="best" departPos="100" >
        <route edges="ym-343737324#2 ym-343737324#0 ym-1075130526#1 y1221681662#5"/>
    </vehicle>
    <vehicle id="25" depart="3.96" type="typedist" departLane="best" departPos="100" >
        <route edges="rh-921144236#1 yb1221681662#4 y921160679 y-921158505 rb1221681667#3 gb1221681667#4"/>
    </vehicle>
    <vehicle id="26" depart="4.03" type="typedist" departLane="best" departPos="100" >
        <route edges="rh-921144236#1 yb1221681662#4 y921160679 y-921158505 rb1221681667#3 gm-704180166#2"/>
    </vehicle>
    <vehicle id="27" depart="4.56" type="typedist" departLane="best" departPos="100" >
        <route edges="yh343737533#7 gh343737533#10 yh-343737533#13 yh-343737533#9"/>
    </vehicle>
    <vehicle id="28" depart="4.69" type="typedist" departLane="best" departPos="100" >
        <route edges="gb1221681667#4 gb1221681667#5 gb1221681667#7"/>
    </vehicle>
    <vehicle id="29" depart="5.07" type="typedist" departLane="best" departPos="100" >
        <route edges="r888793511#0 gh-252631954 yh2526319540 gb746290966#1"/>
    </vehicle>
    <vehicle id="30" depart="5.34" type="typedist" departLane="best" departPos="100" >
        <route edges="y1221681662#5 gh-252631954 yh2526319540 rb1221681667#0 rb1221681667#3 gb1221681667#4 gb1221681667#5 gb1221681667#7"/>
    </vehicle>
    <vehicle id="31" depart="5.35" type="typedist" departLane="best" departPos="100" >
        <route edges="gh1362547081 gb746290966#1"/>
    </vehicle>
    <vehicle id="32" depart="5.84" type="typedist" departLane="best" departPos="100" >
        <route edges="yh-343737533#13 gm746291868#0"/>
    </vehicle>
    <vehicle id="33" depart="5.84" type="typedist" departLane="best" departPos="100" >
        <route edges="gb1221681667#4"/>
    </vehicle>
    <vehicle id="34" depart="6.42" type="typedist" departLane="best" departPos="100" >
        <route edges="gm-704180166#1 gm746291868#0"/>
    </vehicle>
    <vehicle id="35" depart="6.53" type="typedist" departLane="best" departPos="100" >
        <route edges="rm-746291868#1 ym704180166#0 rh-921144236#1 yb1221681662#4 y1221681662#5 gb746290966#1"/>
    </vehicle>
    <vehicle id="36" depart="6.58" type="typedist" departLane="best" departPos="100" >
        <route edges="gh1362547081 rb1221681667#0 rb1221681667#3 gb1221681667#4 gb1221681667#5 gb1221681667#7"/>
    </vehicle>
    <vehicle id="37" depart="6.79" type="typedist" departLane="best" departPos="100" >
        <route edges="yh-343737533#13 gm746291868#0"/>
    </vehicle>
    <vehicle id="38" depart="6.83" type="typedist" departLane="best" departPos="100" >
        <route edges="gb1221681667#4"/>
    </vehicle>
    <vehicle id="39" depart="6.93" type="typedist" departLane="best" departPos="100" >
        <route edges="yh2526319540 gb746290966#1"/>
    </vehicle>
    <vehicle id="40" depart="6.96" type="typedist" departLane="best" departPos="100" >
        <route edges="ym-343737324#0 yh343737533#4 yh343737533#7"/>
    </vehicle>
    <vehicle id="41" depart="7.16" type="typedist" departLane="best" departPos="100" >
        <route edges="yh-343737533#13 yh-343737533#9"/>
    </vehicle>
    <vehicle id="42" depart="7.25" type="typedist" departLane="best" departPos="100" >
        <route edges="yh2526319540 gb746290966#1"/>
    </vehicle>
    <vehicle id="43" depart="7.29" type="typedist" departLane="best" departPos="100" >
        <route edges="gh1362547081 gb746290966#1"/>
    </vehicle>
    <vehicle id="44" depart="7.31" type="typedist" departLane="best" departPos="100" >
        <route edges="gb1221681662#3 yb1221681662#4 y921160679 y-921158505 rb1221681667#3 gb1221681667#4 gb1221681667#5 gh-343737533#5 ym-1075130526#1"/>
    </vehicle>
    <vehicle id="45" depart="7.64" type="typedist" departLane="best" departPos="100" >
        <route edges="rm-746291868#1 yh-343737533#9 gh-343737533#5"/>
    </vehicle>
    <vehicle id="46" depart="7.70" type="typedist" departLane="best" departPos="100" >
        <route edges="gh343737533#3 yh343737533#4"/>
    </vehicle>
    <vehicle id="47" depart="7.90" type="typedist" departLane="best" departPos="100" >
        <route edges="gm637922365 yh1221681662#1 gh-343737533#5"/>
    </vehicle>
    <vehicle id="48" depart="8.18" type="typedist" departLane="best" departPos="100" >
        <route edges="gh343737533#3 yh343737533#4"/>
    </vehicle>
    <vehicle id="49" depart="8.29" type="typedist" departLane="best" departPos="100" >
        <route edges="gb1221681662#3 yb1221681662#4 y1221681662#5"/>
    </vehicle>
    <vehicle id="50" depart="8.30" type="typedist" departLane="best" departPos="100" >
        <route edges="ym-343737324#0 ym-1075130526#1 y1221681662#5 y1362547077#1"/>
    </vehicle>
    <vehicle id="51" depart="8.32" type="typedist" departLane="best" departPos="100" >
        <route edges="r888793511#0 rb1221681667#0 ym1075130526#1 gm343737324#0"/>
    </vehicle>
    <vehicle id="52" depart="8.53" type="typedist" departLane="best" departPos="100" >
        <route edges="r888793511#0 y1362547077#1"/>
    </vehicle>
    <vehicle id="53" depart="8.56" type="typedist" departLane="best" departPos="100" >
        <route edges="yh343737533#7 gh343737533#10 yh-343737533#13 yh-343737533#9"/>
    </vehicle>
    <vehicle id="54" depart="8.60" type="typedist" departLane="best" departPos="100" >
        <route edges="r888793511#0 gh-252631954"/>
    </vehicle>
    <vehicle id="55" depart="8.61" type="typedist" departLane="best" departPos="100" >
        <route edges="gm637922365 yh1221681662#1 gb1221681662#3 yb1221681662#4"/>
    </vehicle>
    <vehicle id="56" depart="8.62" type="typedist" departLane="best" departPos="100" >
        <route edges="gm-637922365 ym-343737324#0 yh343737533#4"/>
    </vehicle>
    <vehicle id="57" depart="8.63" type="typedist" departLane="best" departPos="100" >
        <route edges="gh1221681662#0.165 gm-637922365 ym343737324#1"/>
    </vehicle>
    <vehicle id="58" depart="8.70" type="typedist" departLane="best" departPos="100" >
        <route edges="gm-637922365 ym-343737324#0 ym-1075130526#1"/>
    </vehicle>
    <vehicle id="59" depart="8.71" type="typedist" departLane="best" departPos="100" >
        <route edges="rh-921144236#1"/>
    </vehicle>
    <vehicle id="60" depart="8.76" type="typedist" departLane="best" departPos="100" >
        <route edges="r888793511#0 y1362547077#1"/>
    </vehicle>
    <vehicle id="61" depart="8.80" type="typedist" departLane="best" departPos="100" >
        <route edges="gb1221681667#4"/>
    </vehicle>
    <vehicle id="62" depart="8.89" type="typedist" departLane="best" departPos="100" >
        <route edges="yh-343737533#13 yh-343737533#9"/>
    </vehicle>
    <vehicle id="63" depart="8.96" type="typedist" departLane="best" departPos="100" >
        <route edges="r888793511#0 y1362547077#1"/>
    </vehicle>
    <vehicle id="64" depart="9.18" type="typedist" departLane="best" departPos="100" >
        <route edges="ym-343737324#2 ym-343737324#0 ym-1075130526#1 y1221681662#5 gh-252631954 yh2526319540 rb1221681667#0"/>
    </vehicle>
    <vehicle id="65" depart="9.51" type="typedist" departLane="best" departPos="100" >
        <route edges="r888793511#0 rb1221681667#0 rb1221681667#3 gm-704180166#2 gm-704180166#1"/>
    </vehicle>
    <vehicle id="66" depart="9.55" type="typedist" departLane="best" departPos="100" >
        <route edges="yh2526319540 gb746290966#1"/>
    </vehicle>
    <vehicle id="67" depart="9.67" type="typedist" departLane="best" departPos="100" >
        <route edges="r888793511#0 y1362547077#1"/>
    </vehicle>
    <vehicle id="68" depart="10.40" type="typedist" departLane="best" departPos="100" >
        <route edges="rh-921144236#1 yb1221681662#4 y921160679 y-921158505 rb1221681667#3 gm-704180166#2 gm-704180166#1"/>
    </vehicle>
    <vehicle id="69" depart="10.46" type="typedist" departLane="best" departPos="100" >
        <route edges="gb1221681667#4"/>
    </vehicle>
    <vehicle id="70" depart="10.81" type="typedist" departLane="best" departPos="100" >
        <route edges="gh1221681662#0.165 gm-637922365"/>
    </vehicle>
    <vehicle id="71" depart="10.89" type="typedist" departLane="best" departPos="100" >
        <route edges="ym1075130526#1 gm343737324#0 ym343737324#1 ym-343737324#2 ym-343737324#0 ym-1075130526#1"/>
    </vehicle>
    <vehicle id="72" depart="10.92" type="typedist" departLane="best" departPos="100" >
        <route edges="rh-921144236#1 gb1221681667#5 gh-343737533#5 gh-343737533#3"/>
    </vehicle>
    <vehicle id="73" depart="10.95" type="typedist" departLane="best" departPos="100" >
        <route edges="yh-343737533#9 gh-343737533#5 gh-343737533#3"/>
    </vehicle>
    <vehicle id="74" depart="10.97" type="typedist" departLane="best" departPos="100" >
        <route edges="gh1362547081 gb746290966#1"/>
    </vehicle>
    <vehicle id="75" depart="11.17" type="typedist" departLane="best" departPos="100" >
        <route edges="y1221681662#5 gb746290966#1"/>
    </vehicle>
    <vehicle id="76" depart="11.38" type="typedist" departLane="best" departPos="100" >
        <route edges="yh1221681662#1 gh-343737533#5 gh-343737533#3"/>
    </vehicle>
    <vehicle id="77" depart="11.45" type="typedist" departLane="best" departPos="100" >
        <route edges="rm-746291868#1 ym704180166#0 rh-921144236#1 yb1221681662#4 y1221681662#5 gb746290966#1"/>
    </vehicle>
    <vehicle id="78" depart="11.81" type="typedist" departLane="best" departPos="100" >
        <route edges="r888793511#0 gh-252631954 yh2526319540 gb746290966#1"/>
    </vehicle>
    <vehicle id="79" depart="11.82" type="typedist" departLane="best" departPos="100" >
        <route edges="gh1221681662#0.165 gm-637922365 ym343737324#1"/>
    </vehicle>
    <vehicle id="80" depart="11.85" type="typedist" departLane="best" departPos="100" >
        <route edges="gb1221681667#5 gb1221681667#7"/>
    </vehicle>
    <vehicle id="81" depart="12.06" type="typedist" departLane="best" departPos="100" >
        <route edges="gb1221681667#4"/>
    </vehicle>
    <vehicle id="82" depart="12.10" type="typedist" departLane="best" departPos="100" >
        <route edges="gh1221681662#0.165 yh1221681662#1"/>
    </vehicle>
    <vehicle id="83" depart="12.24" type="typedist" departLane="best" departPos="100" >
        <route edges="r888793511#0 rb1221681667#0 rb1221681667#3 gb1221681667#4 gb1221681667#5 gh-343737533#5"/>
    </vehicle>
    <vehicle id="84" depart="12.29" type="typedist" departLane="best" departPos="100" >
        <route edges="gb1221681667#4 gb1221681667#5 gb1221681667#7"/>
    </vehicle>
    <vehicle id="85" depart="12.31" type="typedist" departLane="best" departPos="100" >
        <route edges="gh1221681662#0.165 yh1221681662#1"/>
    </vehicle>
    <vehicle id="86" depart="12.39" type="typedist" departLane="best" departPos="100" >
        <route edges="gb1221681667#5 yh343737533#7 ym704180166#0 rh-921144236#1 yb1221681662#4 y1221681662#5 gh-252631954 yh2526319540 rb1221681667#0"/>
    </vehicle>
    <vehicle id="87" depart="12.58" type="typedist" departLane="best" departPos="100" >
        <route edges="y1221681662#5 gh-252631954 yh2526319540 rb1221681667#0 rb1221681667#3"/>
    </vehicle>
    <vehicle id="88" depart="12.59" type="typedist" departLane="best" departPos="100" >
        <route edges="rb1221681667#0 rb1221681667#3 gb1221681667#4 gb1221681667#5 gb1221681667#7"/>
    </vehicle>
    <vehicle id="89" depart="13.17" type="typedist" departLane="best" departPos="100" >
        <route edges="rh-921144236#1"/>
    </vehicle>
    <vehicle id="90" depart="13.60" type="typedist" departLane="best" departPos="100" >
        <route edges="yh1221681662#1 gb1221681662#3 yb1221681662#4 y1221681662#5 gh-252631954"/>
    </vehicle>
    <vehicle id="91" depart="13.87" type="typedist" departLane="best" departPos="100" >
        <route edges="ym-343737324#0 yh343737533#4 yh343737533#7 gm746291868#0"/>
    </vehicle>
    <vehicle id="92" depart="13.95" type="typedist" departLane="best" departPos="100" >
        <route edges="gb1221681667#5 yh343737533#7 ym704180166#0 rh-921144236#1 yb1221681662#4 y1221681662#5 gb746290966#1"/>
    </vehicle>
    <vehicle id="93" depart="14.08" type="typedist" departLane="best" departPos="100" >
        <route edges="yh-343737533#13 yh-343737533#9"/>
    </vehicle>
    <vehicle id="94" depart="14.35" type="typedist" departLane="best" departPos="100" >
        <route edges="ym-343737324#2 ym-343737324#0 yh343737533#4"/>
    </vehicle>
    <vehicle id="95" depart="14.43" type="typedist" departLane="best" departPos="100" >
        <route edges="y1221681662#5 gb746290966#1"/>
    </vehicle>
    <vehicle id="96" depart="14.45" type="typedist" departLane="best" departPos="100" >
        <route edges="gh343737533#3 yh343737533#4"/>
    </vehicle>
    <vehicle id="97" depart="14.57" type="typedist" departLane="best" departPos="100" >
        <route edges="r888793511#0 rb1221681667#0 rb1221681667#3 gm-704180166#2 gm-704180166#1 gm746291868#0"/>
    </vehicle>
    <vehicle id="98" depart="14.68" type="typedist" departLane="best" departPos="100" >
        <route edges="yh1221681662#1 gb1221681662#3 yb1221681662#4 y1221681662#5 y1362547077#1"/>
    </vehicle>
    <vehicle id="99" depart="14.79" type="typedist" departLane="best" departPos="100" >
        <route edges="gh1362547081 gh-252631954 yh2526319540 y1362547077#1"/>
    </vehicle>
    <vehicle id="100" depart="15.15" type="typedist" departLane="best" departPos="100" >
        <route edges="rm-746291868#1 gh343737533#10"/>
    </vehicle>
    <vehicle id="101" depart="15.18" type="typedist" departLane="best" departPos="100" >
        <route edges="r888793511#0 rb1221681667#0 rb1221681667#3 gm-704180166#2 gm-704180166#1 yh-343737533#9"/>
    </vehicle>
    <vehicle id="102" depart="15.20" type="typedist" departLane="best" departPos="100" >
        <route edges="yh2526319540 rb1221681667#0"/>
    </vehicle>
    <vehicle id="103" depart="15.24" type="typedist" departLane="best" departPos="100" >
        <route edges="gh1221681662#0.165 yh1221681662#1 gb1221681662#3 yb1221681662#4 y1221681662#5"/>
    </vehicle>
    <vehicle id="104" depart="15.41" type="typedist" departLane="best" departPos="100" >
        <route edges="y1221681662#5 gh-252631954"/>
    </vehicle>
    <vehicle id="105" depart="15.56" type="typedist" departLane="best" departPos="100" >
        <route edges="y1221681662#5 y1362547077#1"/>
    </vehicle>
    <vehicle id="106" depart="15.57" type="typedist" departLane="best" departPos="100" >
        <route edges="gh1362547081 rb1221681667#0 ym1075130526#1"/>
    </vehicle>
    <vehicle id="107" depart="15.61" type="typedist" departLane="best" departPos="100" >
        <route edges="rm-746291868#1 gh343737533#10"/>
    </vehicle>
    <vehicle id="108" depart="15.65" type="typedist" departLane="best" departPos="100" >
        <route edges="ym-343737324#0 yh343737533#4 yh343737533#7 gm746291868#0"/>
    </vehicle>
    <vehicle id="109" depart="15.81" type="typedist" departLane="best" departPos="100" >
        <route edges="gh343737533#3 yh343737533#4"/>
    </vehicle>
    <vehicle id="110" depart="15.83" type="typedist" departLane="best" departPos="100" >
        <route edges="yh343737533#7 gh343737533#10"/>
    </vehicle>
    <vehicle id="111" depart="15.84" type="typedist" departLane="best" departPos="100" >
        <route edges="gb1221681667#4"/>
    </vehicle>
    <vehicle id="112" depart="15.85" type="typedist" departLane="best" departPos="100" >
        <route edges="rm-746291868#1 yh-343737533#9"/>
    </vehicle>
    <vehicle id="113" depart="15.87" type="typedist" departLane="best" departPos="100" >
        <route edges="rm-746291868#1 yh-343737533#9 gh-343737533#5 gh-343737533#3"/>
    </vehicle>
    <vehicle id="114" depart="15.87" type="typedist" departLane="best" departPos="100" >
        <route edges="gh1221681662#0.165 yh1221681662#1"/>
    </vehicle>
    <vehicle id="115" depart="16.01" type="typedist" departLane="best" departPos="100" >
        <route edges="yh2526319540 rb1221681667#0 rb1221681667#3 gm-704180166#2 gm-704180166#1 yh-343737533#9"/>
    </vehicle>
    <vehicle id="116" depart="16.30" type="typedist" departLane="best" departPos="100" >
        <route edges="yh343737533#4 yh343737533#7 ym704180166#0 rh-921144236#1 yb1221681662#4 y921160679 y-921158505 rb1221681667#3 gb1221681667#4"/>
    </vehicle>
    <vehicle id="117" depart="16.49" type="typedist" departLane="best" departPos="100" >
        <route edges="gm-704180166#2 gm-704180166#1 yh-343737533#9 gh-343737533#5 gm343737324#0 ym343737324#1 ym-343737324#2 ym-343737324#0"/>
    </vehicle>
    <vehicle id="118" depart="16.59" type="typedist" departLane="best" departPos="100" >
        <route edges="yb1221681662#4 y921160679 y-921158505 rb1221681667#3 gb1221681667#4 gb1221681667#5 gh-343737533#5 ym-1075130526#1"/>
    </vehicle>
    <vehicle id="119" depart="16.62" type="typedist" departLane="best" departPos="100" >
        <route edges="yb1221681662#4 y1221681662#5 gb746290966#1"/>
    </vehicle>
    <vehicle id="120" depart="16.70" type="typedist" departLane="best" departPos="100" >
        <route edges="yh-343737533#13 gm746291868#0"/>
    </vehicle>
    <vehicle id="121" depart="16.72" type="typedist" departLane="best" departPos="100" >
        <route edges="rh-921144236#1 yb1221681662#4 y1221681662#5 gh-252631954"/>
    </vehicle>
    <vehicle id="122" depart="16.85" type="typedist" departLane="best" departPos="100" >
        <route edges="r888793511#0 gh-252631954"/>
    </vehicle>
    <vehicle id="123" depart="16.86" type="typedist" departLane="best" departPos="100" >
        <route edges="y1221681662#5 gh-252631954 yh2526319540 rb1221681667#0 rb1221681667#3 gb1221681667#4"/>
    </vehicle>
    <vehicle id="124" depart="17.21" type="typedist" departLane="best" departPos="100" >
        <route edges="ym1075130526#1 yh343737533#4 yh343737533#7 gh343737533#10"/>
    </vehicle>
    <vehicle id="125" depart="17.31" type="typedist" departLane="best" departPos="100" >
        <route edges="gh1221681662#0.165 yh1221681662#1 gb1221681662#3 yb1221681662#4 y1221681662#5 gb746290966#1"/>
    </vehicle>
    <vehicle id="126" depart="17.37" type="typedist" departLane="best" departPos="100" >
        <route edges="gh1221681662#0.165 yh1221681662#1 gb1221681662#3"/>
    </vehicle>
    <vehicle id="127" depart="17.37" type="typedist" departLane="best" departPos="100" >
        <route edges="gh1221681662#0.165 yh1221681662#1 gb1221681662#3 yb1221681662#4"/>
    </vehicle>
    <vehicle id="128" depart="17.75" type="typedist" departLane="best" departPos="100" >
        <route edges="gh1362547081 rb1221681667#0 rb1221681667#3 gb1221681667#4 gb1221681667#5"/>
    </vehicle>
    <vehicle id="129" depart="17.89" type="typedist" departLane="best" departPos="100" >
        <route edges="gh1221681662#0.165 yh1221681662#1 gb1221681662#3"/>
    </vehicle>
    <vehicle id="130" depart="18.18" type="typedist" departLane="best" departPos="100" >
        <route edges="yh1221681662#1 gb1221681662#3 yb1221681662#4 y1221681662#5 y1362547077#1"/>
    </vehicle>
    <vehicle id="131" depart="18.22" type="typedist" departLane="best" departPos="100" >
        <route edges="ym-1075130526#1 rb1221681667#3 gb1221681667#4 gb1221681667#5 gh-343737533#5 gm343737324#0 gm637922365 yh1221681662#1"/>
    </vehicle>
    <vehicle id="132" depart="18.24" type="typedist" departLane="best" departPos="100" >
        <route edges="yh-343737533#9 gb1221681667#7"/>
    </vehicle>
    <vehicle id="133" depart="18.31" type="typedist" departLane="best" departPos="100" >
        <route edges="yh-343737533#13 yh-343737533#9"/>
    </vehicle>
    <vehicle id="134" depart="18.60" type="typedist" departLane="best" departPos="100" >
        <route edges="r888793511#0 gh-252631954 yh2526319540 gb746290966#1"/>
    </vehicle>
    <vehicle id="135" depart="18.69" type="typedist" departLane="best" departPos="100" >
        <route edges="gh1221681662#0.165 yh1221681662#1 gb1221681662#3"/>
    </vehicle>
    <vehicle id="136" depart="18.69" type="typedist" departLane="best" departPos="100" >
        <route edges="yh-343737533#13 ym704180166#0 rh-921144236#1 yb1221681662#4 y1221681662#5 gh-252631954 yh2526319540 rb1221681667#0"/>
    </vehicle>
    <vehicle id="137" depart="18.88" type="typedist" departLane="best" departPos="100" >
        <route edges="gh343737533#3 yh343737533#4"/>
    </vehicle>
    <vehicle id="138" depart="18.97" type="typedist" departLane="best" departPos="100" >
        <route edges="gh1362547081 rb1221681667#0 rb1221681667#3 gb1221681667#4 gb1221681667#5 gb1221681667#7"/>
    </vehicle>
    <vehicle id="139" depart="19.25" type="typedist" departLane="best" departPos="100" >
        <route edges="gh1362547081 gb746290966#1"/>
    </vehicle>
    <vehicle id="140" depart="19.30" type="typedist" departLane="best" departPos="100" >
        <route edges="gb1221681667#5 gb1221681667#7"/>
    </vehicle>
    <vehicle id="141" depart="19.43" type="typedist" departLane="best" departPos="100" >
        <route edges="r888793511#0 rb1221681667#0 y921160679 y-921158505 y1221681662#5"/>
    </vehicle>
    <vehicle id="142" depart="19.48" type="typedist" departLane="best" departPos="100" >
        <route edges="gb1221681667#4"/>
    </vehicle>
    <vehicle id="143" depart="19.48" type="typedist" departLane="best" departPos="100" >
        <route edges="r888793511#0 rb1221681667#0 ym1075130526#1 yh343737533#4"/>
    </vehicle>
    <vehicle id="144" depart="19.61" type="typedist" departLane="best" departPos="100" >
        <route edges="yh2526319540 y1362547077#1"/>
    </vehicle>
    <vehicle id="145" depart="19.63" type="typedist" departLane="best" departPos="100" >
        <route edges="gh1221681662#0.165 yh1221681662#1 yh343737533#7"/>
    </vehicle>
    <vehicle id="146" depart="19.67" type="typedist" departLane="best" departPos="100" >
        <route edges="ym-1075130526#1 rb1221681667#3 gb1221681667#4 gb1221681667#5 gh-343737533#5 gm343737324#0 ym343737324#1 ym-343737324#2 ym-343737324#0"/>
    </vehicle>
    <vehicle id="147" depart="19.81" type="typedist" departLane="best" departPos="100" >
        <route edges="gh1362547081 rb1221681667#0 rb1221681667#3 gb1221681667#4 gb1221681667#5 gb1221681667#7"/>
    </vehicle>
    <vehicle id="148" depart="19.92" type="typedist" departLane="best" departPos="100" >
        <route edges="rb1221681667#0 y921160679 y-921158505 y1221681662#5 gb746290966#1"/>
    </vehicle>
    <vehicle id="149" depart="20.00" type="typedist" departLane="best" departPos="100" >
        <route edges="yh1221681662#1 gb1221681662#3 yb1221681662#4 ym1075130526#1"/>
    </vehicle>
    <vehicle id="150" depart="20.03" type="typedist" departLane="best" departPos="100" >
        <route edges="gh1221681662#0.165 yh1221681662#1"/>
    </vehicle>
    <vehicle id="151" depart="20.11" type="typedist" departLane="best" departPos="100" >
        <route edges="rb1221681667#0 ym1075130526#1 yh343737533#4"/>
    </vehicle>
    <vehicle id="152" depart="20.31" type="typedist" departLane="best" departPos="100" >
        <route edges="y1221681662#5 gb746290966#1"/>
    </vehicle>
    <vehicle id="153" depart="20.42" type="typedist" departLane="best" departPos="100" >
        <route edges="r888793511#0 rb1221681667#0 rb1221681667#3 gb1221681667#4"/>
    </vehicle>
    <vehicle id="154" depart="20.63" type="typedist" departLane="best" departPos="100" >
        <route edges="gb1221681667#5 yh343737533#7 gh343737533#10 yh-343737533#13 yh-343737533#9"/>
    </vehicle>
    <vehicle id="155" depart="20.75" type="typedist" departLane="best" departPos="100" >
        <route edges="gb1221681662#3 yb1221681662#4 y1221681662#5 y1362547077#1"/>
    </vehicle>
    <vehicle id="156" depart="20.76" type="typedist" departLane="best" departPos="100" >
        <route edges="gh1362547081 gh-252631954 yh2526319540 y1362547077#1"/>
    </vehicle>
    <vehicle id="157" depart="20.78" type="typedist" departLane="best" departPos="100" >
        <route edges="r888793511#0 rb1221681667#0 rb1221681667#3 gb1221681667#4 gb1221681667#5 gh-343737533#5 ym-1075130526#1"/>
    </vehicle>
    <vehicle id="158" depart="21.43" type="typedist" departLane="best" departPos="100" >
        <route edges="yh1221681662#1 gb1221681662#3 yb1221681662#4 y1221681662#5 gh-252631954"/>
    </vehicle>
    <vehicle id="159" depart="21.60" type="typedist" departLane="best" departPos="100" >
        <route edges="y1221681662#5 gh-252631954 yh2526319540 rb1221681667#0 rb1221681667#3 gb1221681667#4 gb1221681667#5 gb1221681667#7"/>
    </vehicle>