<?xml version="1.0" encoding="UTF-8"?>

<!-- generated on 2025-12-02 10:17:46.055414 by routeSampler.py v1_22_0+0002-63e50f52594
<configuration>
    <route-files value="D:/Cong viec tai VTS/4 Sumo thai nguyen/route_sampler/only_rou.xml"/>
    <edgedata-files value="D:/Cong viec tai VTS/4 Sumo thai nguyen/route_sampler/edgeData.xml"/>
    <output-file value="D:/Cong viec tai VTS/4 Sumo thai nguyen/rou_sampler.rou.xml"/>
    <attributes value="type=&quot;typedist&quot; departLane=&quot;best&quot; departPos=&quot;100&quot; "/>
</configuration>
-->

<routes xmlns:xsi="http://www.w3.org/2001/XMLSchema-instance" xsi:noNamespaceSchemaLocation="http://sumo.dlr.de/xsd/routes_file.xsd">
<!-- begin="0.0" end="1800.0" -->
    <vehicle id="0" depart="0.21" type="typedist" departLane="best" departPos="100" >
        <route edges="r888793511#0 rb1221681667#0 rb1221681667#3"/>
    </vehicle>
    <vehicle id="1" depart="0.43" type="typedist" departLane="best" departPos="100" >
        <route edges="yh1221681662#1"/>
    </vehicle>
    <vehicle id="2" depart="1.15" type="typedist" departLane="best" departPos="100" >
        <route edges="gh-343737533#5 ym-1075130526#1 rb1221681667#3 gb1221681667#4 gb1221681667#5 gb1221681667#7"/>
    </vehicle>
    <vehicle id="3" depart="1.84" type="typedist" departLane="best" departPos="100" >
        <route edges="gh343737533#3 ym-1075130526#1 rb1221681667#3 gm-704180166#2 gm-704180166#1 yh-343737533#9"/>
    </vehicle>
    <vehicle id="4" depart="1.96" type="typedist" departLane="best" departPos="100" >
        <route edges="gh1221681662#0.165 yh1221681662#1"/>
    </vehicle>
    <vehicle id="5" depart="2.03" type="typedist" departLane="best" departPos="100" >
        <route edges="yh-343737533#13 gm746291868#0"/>
    </vehicle>
    <vehicle id="6" depart="2.37" type="typedist" departLane="best" departPos="100" >
        <route edges="rm-746291868#1 gh343737533#10"/>
    </vehicle>
    <vehicle id="7" depart="2.46" type="typedist" departLane="best" departPos="100" >
        <route edges="rb1221681667#3"/>
    </vehicle>
    <vehicle id="8" depart="3.93" type="typedist" departLane="best" departPos="100" >
        <route edges="gh1362547081 rb1221681667#0 rb1221681667#3"/>
    </vehicle>
    <vehicle id="9" depart="4.69" type="typedist" departLane="best" departPos="100" >
        <route edges="gb1221681667#4 gb1221681667#5 yh343737533#7 gh343737533#10 yh-343737533#13 yh-343737533#9"/>
    </vehicle>
    <vehicle id="10" depart="4.80" type="typedist" departLane="best" departPos="100" >
        <route edges="gb1221681667#5 yh343737533#7 ym704180166#0 rh-921144236#1 yb1221681662#4 y1221681662#5 gb746290966#1"/>
    </vehicle>
    <vehicle id="11" depart="5.33" type="typedist" departLane="best" departPos="100" >
        <route edges="rh-921144236#1"/>
    </vehicle>
    <vehicle id="12" depart="5.71" type="typedist" departLane="best" departPos="100" >
        <route edges="gh343737533#3 yh343737533#4"/>
    </vehicle>
    <vehicle id="13" depart="6.37" type="typedist" departLane="best" departPos="100" >
        <route edges="rh-921144236#1"/>
    </vehicle>
    <vehicle id="14" depart="6.44" type="typedist" departLane="best" departPos="100" >
        <route edges="rh-921144236#1 yb1221681662#4 y1221681662#5 y1362547077#1"/>
    </vehicle>
    <vehicle id="15" depart="6.50" type="typedist" departLane="best" departPos="100" >
        <route edges="yh1221681662#1 gb1221681662#3 yb1221681662#4 ym1075130526#1"/>
    </vehicle>
    <vehicle id="16" depart="6.69" type="typedist" departLane="best" departPos="100" >
        <route edges="gh343737533#3 yh343737533#4"/>
    </vehicle>
    <vehicle id="17" depart="7.82" type="typedist" departLane="best" departPos="100" >
        <route edges="rb1221681667#3"/>
    </vehicle>
    <vehicle id="18" depart="8.95" type="typedist" departLane="best" departPos="100" >
        <route edges="r888793511#0 rb1221681667#0"/>
    </vehicle>
    <vehicle id="19" depart="10.14" type="typedist" departLane="best" departPos="100" >
        <route edges="rh-921144236#1"/>
    </vehicle>
    <vehicle id="20" depart="10.19" type="typedist" departLane="best" departPos="100" >
        <route edges="gh-343737533#5 gh-343737533#3"/>
    </vehicle>
    <vehicle id="21" depart="10.58" type="typedist" departLane="best" departPos="100" >
        <route edges="rh-921144236#1"/>
    </vehicle>
    <vehicle id="22" depart="10.95" type="typedist" departLane="best" departPos="100" >
        <route edges="rh-921144236#1"/>
    </vehicle>
    <vehicle id="23" depart="11.69" type="typedist" departLane="best" departPos="100" >
        <route edges="gh1221681662#0.165 gm-637922365 ym-343737324#0 yh343737533#4"/>
    </vehicle>
    <vehicle id="24" depart="13.33" type="typedist" departLane="best" departPos="100" >
        <route edges="rb1221681667#3"/>
    </vehicle>
    <vehicle id="25" depart="14.05" type="typedist" departLane="best" departPos="100" >
        <route edges="rm-746291868#1 yh-343737533#9 gb1221681667#7"/>
    </vehicle>
    <vehicle id="26" depart="14.46" type="typedist" departLane="best" departPos="100" >
        <route edges="rh-921144236#1"/>
    </vehicle>
    <vehicle id="27" depart="14.50" type="typedist" departLane="best" departPos="100" >
        <route edges="r888793511#0 y1362547077#1"/>
    </vehicle>
    <vehicle id="28" depart="14.55" type="typedist" departLane="best" departPos="100" >
        <route edges="yh343737533#4 yh343737533#7 ym704180166#0 rh-921144236#1 yb1221681662#4 y921160679 y-921158505 rb1221681667#3 gm-704180166#2 gm-704180166#1"/>
    </vehicle>
    <vehicle id="29" depart="14.76" type="typedist" departLane="best" departPos="100" >
        <route edges="yh343737533#7 gh343737533#10 yh-343737533#13 yh-343737533#9"/>
    </vehicle>
    <vehicle id="30" depart="15.88" type="typedist" departLane="best" departPos="100" >
        <route edges="rh-921144236#1"/>
    </vehicle>
    <vehicle id="31" depart="15.90" type="typedist" departLane="best" departPos="100" >
        <route edges="r888793511#0 rb1221681667#0"/>
    </vehicle>
    <vehicle id="32" depart="15.96" type="typedist" departLane="best" departPos="100" >
        <route edges="gh1221681662#0.165 yh1221681662#1"/>
    </vehicle>
    <vehicle id="33" depart="15.99" type="typedist" departLane="best" departPos="100" >
        <route edges="gm-637922365 ym-343737324#0 yh343737533#4 yh343737533#7 gm746291868#0"/>
    </vehicle>
    <vehicle id="34" depart="16.04" type="typedist" departLane="best" departPos="100" >
        <route edges="rb1221681667#3"/>
    </vehicle>
    <vehicle id="35" depart="16.40" type="typedist" departLane="best" departPos="100" >
        <route edges="rb1221681667#0 rb1221681667#3 gb1221681667#4 gb1221681667#5 yh343737533#7 ym704180166#0 rh-921144236#1 yb1221681662#4"/>
    </vehicle>
    <vehicle id="36" depart="17.25" type="typedist" departLane="best" departPos="100" >
        <route edges="rh-921144236#1"/>
    </vehicle>
    <vehicle id="37" depart="17.65" type="typedist" departLane="best" departPos="100" >
        <route edges="r888793511#0 rb1221681667#0"/>
    </vehicle>
    <vehicle id="38" depart="17.75" type="typedist" departLane="best" departPos="100" >
        <route edges="rb1221681667#0"/>
    </vehicle>
    <vehicle id="39" depart="17.95" type="typedist" departLane="best" departPos="100" >
        <route edges="rh-921144236#1"/>
    </vehicle>
    <vehicle id="40" depart="18.13" type="typedist" departLane="best" departPos="100" >
        <route edges="rm-746291868#1 yh-343737533#9"/>
    </vehicle>
    <vehicle id="41" depart="18.65" type="typedist" departLane="best" departPos="100" >
        <route edges="rm-746291868#1 yh-343737533#9"/>
    </vehicle>
    <vehicle id="42" depart="18.91" type="typedist" departLane="best" departPos="100" >
        <route edges="rm-746291868#1 yh-343737533#9 gb1221681667#7"/>
    </vehicle>
    <vehicle id="43" depart="19.88" type="typedist" departLane="best" departPos="100" >
        <route edges="gh1362547081 gh-252631954 yh2526319540 y1362547077#1"/>
    </vehicle>
    <vehicle id="44" depart="20.20" type="typedist" departLane="best" departPos="100" >
        <route edges="rm-746291868#1 gh343737533#10"/>
    </vehicle>
    <vehicle id="45" depart="21.34" type="typedist" departLane="best" departPos="100" >
        <route edges="rh-921144236#1 yb1221681662#4 y1221681662#5"/>
    </vehicle>
    <vehicle id="46" depart="21.43" type="typedist" departLane="best" departPos="100" >
        <route edges="yh343737533#7 gh343737533#10"/>
    </vehicle>
    <vehicle id="47" depart="22.30" type="typedist" departLane="best" departPos="100" >
        <route edges="rb1221681667#0 rb1221681667#3"/>
    </vehicle>
    <vehicle id="48" depart="22.34" type="typedist" departLane="best" departPos="100" >
        <route edges="rb1221681667#3"/>
    </vehicle>
    <vehicle id="49" depart="22.59" type="typedist" departLane="best" departPos="100" >
        <route edges="rh-921144236#1"/>
    </vehicle>
    <vehicle id="50" depart="23.14" type="typedist" departLane="best" departPos="100" >
        <route edges="rh-921144236#1"/>
    </vehicle>
    <vehicle id="51" depart="23.82" type="typedist" departLane="best" departPos="100" >
        <route edges="yh343737533#7 ym704180166#0 rh-921144236#1 yb1221681662#4 y1221681662#5"/>
    </vehicle>
    <vehicle id="52" depart="23.88" type="typedist" departLane="best" departPos="100" >
        <route edges="y1221681662#5 gh-252631954 yh2526319540 rb1221681667#0 ym1075130526#1 gh-343737533#3"/>
    </vehicle>
    <vehicle id="53" depart="24.16" type="typedist" departLane="best" departPos="100" >
        <route edges="rh-921144236#1"/>
    </vehicle>
    <vehicle id="54" depart="24.45" type="typedist" departLane="best" departPos="100" >
        <route edges="r888793511#0 y1362547077#1"/>
    </vehicle>
    <vehicle id="55" depart="24.88" type="typedist" departLane="best" departPos="100" >
        <route edges="rb1221681667#3"/>
    </vehicle>
    <vehicle id="56" depart="25.61" type="typedist" departLane="best" departPos="100" >
        <route edges="gm-704180166#1 gh343737533#10 yh-343737533#13 ym704180166#0 rh-921144236#1 gb1221681667#5 yh343737533#7"/>
    </vehicle>
    <vehicle id="57" depart="25.69" type="typedist" departLane="best" departPos="100" >
        <route edges="gm-704180166#1 gh343737533#10 yh-343737533#13 ym704180166#0 rh-921144236#1 yb1221681662#4"/>
    </vehicle>
    <vehicle id="58" depart="25.72" type="typedist" departLane="best" departPos="100" >
        <route edges="r888793511#0 rb1221681667#0 ym1075130526#1 gh-343737533#3"/>
    </vehicle>
    <vehicle id="59" depart="26.50" type="typedist" departLane="best" departPos="100" >
        <route edges="rh-921144236#1"/>
    </vehicle>
    <vehicle id="60" depart="26.76" type="typedist" departLane="best" departPos="100" >
        <route edges="gh1362547081 rb1221681667#0 rb1221681667#3"/>
    </vehicle>
    <vehicle id="61" depart="26.92" type="typedist" departLane="best" departPos="100" >
        <route edges="yh1221681662#1"/>
    </vehicle>
    <vehicle id="62" depart="27.16" type="typedist" departLane="best" departPos="100" >
        <route edges="rh-921144236#1"/>
    </vehicle>
    <vehicle id="63" depart="28.09" type="typedist" departLane="best" departPos="100" >
        <route edges="gh1221681662#0.165 yh1221681662#1 gb1221681662#3 yb1221681662#4"/>
    </vehicle>
    <vehicle id="64" depart="28.10" type="typedist" departLane="best" departPos="100" >
        <route edges="rm-746291868#1 yh-343737533#9 gb1221681667#7"/>
    </vehicle>
    <vehicle id="65" depart="28.21" type="typedist" departLane="best" departPos="100" >
        <route edges="gm343737324#0 gm637922365 yh1221681662#1 gb1221681662#3 yb1221681662#4 y921160679"/>
    </vehicle>
    <vehicle id="66" depart="28.25" type="typedist" departLane="best" departPos="100" >
        <route edges="rm-746291868#1 yh-343737533#9 gb1221681667#7"/>
    </vehicle>
    <vehicle id="67" depart="28.29" type="typedist" departLane="best" departPos="100" >
        <route edges="r888793511#0 rb1221681667#0 rb1221681667#3"/>
    </vehicle>
    <vehicle id="68" depart="28.39" type="typedist" departLane="best" departPos="100" >
        <route edges="ym-343737324#0 ym-1075130526#1 rb1221681667#3 gm-704180166#2 gm-704180166#1 yh-343737533#9"/>
    </vehicle>
    <vehicle id="69" depart="28.61" type="typedist" departLane="best" departPos="100" >
        <route edges="y-921158505 rb1221681667#3 gm-704180166#2 gm-704180166#1 gh343737533#10"/>
    </vehicle>
    <vehicle id="70" depart="29.42" type="typedist" departLane="best" departPos="100" >
        <route edges="r888793511#0 rb1221681667#0 rb1221681667#3"/>
    </vehicle>
    <vehicle id="71" depart="30.25" type="typedist" departLane="best" departPos="100" >
        <route edges="r888793511#0 rb1221681667#0 rb1221681667#3"/>
    </vehicle>
    <vehicle id="72" depart="30.46" type="typedist" departLane="best" departPos="100" >
        <route edges="yh2526319540 y1362547077#1"/>
    </vehicle>
    <vehicle id="73" depart="30.77" type="typedist" departLane="best" departPos="100" >
        <route edges="rh-921144236#1 yb1221681662#4 y921160679 y-921158505 rb1221681667#3 gb1221681667#4"/>
    </vehicle>
    <vehicle id="74" depart="30.87" type="typedist" departLane="best" departPos="100" >
        <route edges="yh2526319540 rb1221681667#0 rb1221681667#3 gb1221681667#4 gb1221681667#5 gh-343737533#5"/>
    </vehicle>
    <vehicle id="75" depart="30.87" type="typedist" departLane="best" departPos="100" >
        <route edges="gh1221681662#0.165 yh1221681662#1"/>
    </vehicle>
    <vehicle id="76" depart="31.19" type="typedist" departLane="best" departPos="100" >
        <route edges="gh1221681662#0.165 yh1221681662#1"/>
    </vehicle>
    <vehicle id="77" depart="31.44" type="typedist" departLane="best" departPos="100" >
        <route edges="rh-921144236#1"/>
    </vehicle>
    <vehicle id="78" depart="31.67" type="typedist" departLane="best" departPos="100" >
        <route edges="yh2526319540 rb1221681667#0 ym1075130526#1 yh343737533#4"/>
    </vehicle>
    <vehicle id="79" depart="32.04" type="typedist" departLane="best" departPos="100" >
        <route edges="rh-921144236#1"/>
    </vehicle>
    <vehicle id="80" depart="32.17" type="typedist" departLane="best" departPos="100" >
        <route edges="y-921158505 y1221681662#5 gh-252631954"/>
    </vehicle>
    <vehicle id="81" depart="32.76" type="typedist" departLane="best" departPos="100" >
        <route edges="yh-343737533#9 gb1221681667#7"/>
    </vehicle>
    <vehicle id="82" depart="32.77" type="typedist" departLane="best" departPos="100" >
        <route edges="rh-921144236#1"/>
    </vehicle>
    <vehicle id="83" depart="32.88" type="typedist" departLane="best" departPos="100" >
        <route edges="yh343737533#4"/>
    </vehicle>
    <vehicle id="84" depart="32.97" type="typedist" departLane="best" departPos="100" >
        <route edges="rb1221681667#3"/>
    </vehicle>
    <vehicle id="85" depart="32.97" type="typedist" departLane="best" departPos="100" >
        <route edges="r888793511#0 rb1221681667#0 rb1221681667#3"/>
    </vehicle>
    <vehicle id="86" depart="33.22" type="typedist" departLane="best" departPos="100" >
        <route edges="gb1221681667#5 yh343737533#7 ym704180166#0 rh-921144236#1 yb1221681662#4 y1221681662#5 gh-252631954"/>
    </vehicle>
    <vehicle id="87" depart="33.39" type="typedist" departLane="best" departPos="100" >
        <route edges="gh1221681662#0.165 yh1221681662#1 gb1221681662#3 yb1221681662#4 y1221681662#5 gb746290966#1"/>
    </vehicle>
    <vehicle id="88" depart="33.41" type="typedist" departLane="best" departPos="100" >
        <route edges="rb1221681667#3"/>
    </vehicle>
    <vehicle id="89" depart="33.81" type="typedist" departLane="best" departPos="100" >
        <route edges="gh1362547081 rb1221681667#0"/>
    </vehicle>
    <vehicle id="90" depart="33.97" type="typedist" departLane="best" departPos="100" >
        <route edges="rb1221681667#0 rb1221681667#3"/>
    </vehicle>
    <vehicle id="91" depart="34.38" type="typedist" departLane="best" departPos="100" >
        <route edges="gh1221681662#0.165 yh1221681662#1"/>
    </vehicle>
    <vehicle id="92" depart="34.38" type="typedist" departLane="best" departPos="100" >
        <route edges="yh-343737533#9 gh-343737533#5 gh-343737533#3"/>
    </vehicle>
    <vehicle id="93" depart="34.65" type="typedist" departLane="best" departPos="100" >
        <route edges="rh-921144236#1"/>
    </vehicle>
    <vehicle id="94" depart="34.77" type="typedist" departLane="best" departPos="100" >
        <route edges="rh-921144236#1"/>
    </vehicle>
    <vehicle id="95" depart="34.98" type="typedist" departLane="best" departPos="100" >
        <route edges="rh-921144236#1"/>
    </vehicle>
    <vehicle id="96" depart="35.34" type="typedist" departLane="best" departPos="100" >
        <route edges="gm-637922365 ym-343737324#0 ym-1075130526#1 y1221681662#5 gh-252631954"/>
    </vehicle>
    <vehicle id="97" depart="35.44" type="typedist" departLane="best" departPos="100" >
        <route edges="yh343737533#4 yh343737533#7 gh343737533#10 yh-343737533#13 yh-343737533#9"/>
    </vehicle>
    <vehicle id="98" depart="35.52" type="typedist" departLane="best" departPos="100" >
        <route edges="rh-921144236#1"/>
    </vehicle>
    <vehicle id="99" depart="36.03" type="typedist" departLane="best" departPos="100" >
        <route edges="yh-343737533#9 gb1221681667#7"/>
    </vehicle>
    <vehicle id="100" depart="36.04" type="typedist" departLane="best" departPos="100" >
        <route edges="r888793511#0 rb1221681667#0 rb1221681667#3"/>
    </vehicle>
    <vehicle id="101" depart="36.06" type="typedist" departLane="best" departPos="100" >
        <route edges="rb1221681667#0 rb1221681667#3"/>
    </vehicle>
    <vehicle id="102" depart="36.56" type="typedist" departLane="best" departPos="100" >
        <route edges="gh1362547081 rb1221681667#0"/>
    </vehicle>
    <vehicle id="103" depart="36.89" type="typedist" departLane="best" departPos="100" >
        <route edges="r888793511#0 rb1221681667#0"/>
    </vehicle>
    <vehicle id="104" depart="37.03" type="typedist" departLane="best" departPos="100" >
        <route edges="r888793511#0 rb1221681667#0 rb1221681667#3"/>
    </vehicle>
    <vehicle id="105" depart="37.33" type="typedist" departLane="best" departPos="100" >
        <route edges="rb1221681667#0"/>
    </vehicle>
    <vehicle id="106" depart="37.35" type="typedist" departLane="best" departPos="100" >
        <route edges="r888793511#0 y1362547077#1"/>
    </vehicle>
    <vehicle id="107" depart="37.63" type="typedist" departLane="best" departPos="100" >
        <route edges="r888793511#0 rb1221681667#0"/>
    </vehicle>
    <vehicle id="108" depart="38.15" type="typedist" departLane="best" departPos="100" >
        <route edges="gh1362547081 gb746290966#1"/>
    </vehicle>
    <vehicle id="109" depart="38.97" type="typedist" departLane="best" departPos="100" >
        <route edges="gh343737533#3 yh343737533#4"/>
    </vehicle>
    <vehicle id="110" depart="39.52" type="typedist" departLane="best" departPos="100" >
        <route edges="r888793511#0 y1362547077#1"/>
    </vehicle>
    <vehicle id="111" depart="39.67" type="typedist" departLane="best" departPos="100" >
        <route edges="rh-921144236#1 yb1221681662#4 y1221681662#5 gb746290966#1"/>
    </vehicle>
    <vehicle id="112" depart="39.83" type="typedist" departLane="best" departPos="100" >
        <route edges="yh-343737533#9 gh-343737533#5 gm343737324#0 ym343737324#1 ym-343737324#2 ym-343737324#0 yh343737533#4"/>
    </vehicle>
    <vehicle id="113" depart="39.85" type="typedist" departLane="best" departPos="100" >
        <route edges="rb1221681667#0 rb1221681667#3"/>
    </vehicle>
    <vehicle id="114" depart="39.90" type="typedist" departLane="best" departPos="100" >
        <route edges="gh1221681662#0.165 yh1221681662#1"/>
    </vehicle>
    <vehicle id="115" depart="40.26" type="typedist" departLane="best" departPos="100" >
        <route edges="rb1221681667#3"/>
    </vehicle>
    <vehicle id="116" depart="40.49" type="typedist" departLane="best" departPos="100" >
        <route edges="rb1221681667#3"/>
    </vehicle>
    <vehicle id="117" depart="41.22" type="typedist" departLane="best" departPos="100" >
        <route edges="ym-343737324#0 yh343737533#4 yh343737533#7 ym704180166#0 rh-921144236#1 gb1221681667#5 gb1221681667#7"/>
    </vehicle>
    <vehicle id="118" depart="41.58" type="typedist" departLane="best" departPos="100" >
        <route edges="gh343737533#3 yh343737533#4 yh343737533#7 gm746291868#0"/>
    </vehicle>
    <vehicle id="119" depart="41.92" type="typedist" departLane="best" departPos="100" >
        <route edges="yb1221681662#4 y921160679 y-921158505 rb1221681667#3 gb1221681667#4"/>
    </vehicle>
    <vehicle id="120" depart="42.80" type="typedist" departLane="best" departPos="100" >
        <route edges="gh1221681662#0.165 yh1221681662#1 gb1221681662#3 yb1221681662#4 y921160679"/>
    </vehicle>
    <vehicle id="121" depart="43.27" type="typedist" departLane="best" departPos="100" >
        <route edges="yh1221681662#1 gb1221681662#3 yb1221681662#4 y1221681662#5 gb746290966#1"/>
    </vehicle>
    <vehicle id="122" depart="43.40" type="typedist" departLane="best" departPos="100" >
        <route edges="r888793511#0 y1362547077#1"/>
    </vehicle>
    <vehicle id="123" depart="43.44" type="typedist" departLane="best" departPos="100" >
        <route edges="rh-921144236#1"/>
    </vehicle>
    <vehicle id="124" depart="43.51" type="typedist" departLane="best" departPos="100" >
        <route edges="rm-746291868#1 gh343737533#10"/>
    </vehicle>
    <vehicle id="125" depart="43.52" type="typedist" departLane="best" departPos="100" >
        <route edges="yh2526319540 rb1221681667#0"/>
    </vehicle>
    <vehicle id="126" depart="45.03" type="typedist" departLane="best" departPos="100" >
        <route edges="r888793511#0 rb1221681667#0"/>
    </vehicle>
    <vehicle id="127" depart="45.61" type="typedist" departLane="best" departPos="100" >
        <route edges="yh2526319540 y1362547077#1"/>
    </vehicle>
    <vehicle id="128" depart="45.94" type="typedist" departLane="best" departPos="100" >
        <route edges="ym704180166#0 rh-921144236#1 gb1221681667#5 gh-343737533#5 gh-343737533#3"/>
    </vehicle>
    <vehicle id="129" depart="46.04" type="typedist" departLane="best" departPos="100" >
        <route edges="r888793511#0 y1362547077#1"/>
    </vehicle>
    <vehicle id="130" depart="46.53" type="typedist" departLane="best" departPos="100" >
        <route edges="gh1221681662#0.165 gm-637922365 ym343737324#1"/>
    </vehicle>
    <vehicle id="131" depart="47.26" type="typedist" departLane="best" departPos="100" >
        <route edges="rh-921144236#1"/>
    </vehicle>
    <vehicle id="132" depart="48.33" type="typedist" departLane="best" departPos="100" >
        <route edges="yh-343737533#13 yh-343737533#9"/>
    </vehicle>
    <vehicle id="133" depart="48.57" type="typedist" departLane="best" departPos="100" >
        <route edges="rh-921144236#1 yb1221681662#4 y1221681662#5 gb746290966#1"/>
    </vehicle>
    <vehicle id="134" depart="48.91" type="typedist" departLane="best" departPos="100" >
        <route edges="rh-921144236#1"/>
    </vehicle>
    <vehicle id="135" depart="48.96" type="typedist" departLane="best" departPos="100" >
        <route edges="r888793511#0 rb1221681667#0 rb1221681667#3 gb1221681667#4"/>
    </vehicle>
    <vehicle id="136" depart="49.49" type="typedist" departLane="best" departPos="100" >
        <route edges="r888793511#0 rb1221681667#0"/>
    </vehicle>
    <vehicle id="137" depart="49.84" type="typedist" departLane="best" departPos="100" >
        <route edges="ym-343737324#0 ym-1075130526#1 y1221681662#5 y1362547077#1"/>
    </vehicle>
    <vehicle id="138" depart="50.35" type="typedist" departLane="best" departPos="100" >
        <route edges="r888793511#0 rb1221681667#0 rb1221681667#3"/>
    </vehicle>
    <vehicle id="139" depart="50.58" type="typedist" departLane="best" departPos="100" >
        <route edges="r888793511#0 rb1221681667#0 rb1221681667#3"/>
    </vehicle>
    <vehicle id="140" depart="50.98" type="typedist" departLane="best" departPos="100" >
        <route edges="rm-746291868#1 gh343737533#10"/>
    </vehicle>
    <vehicle id="141" depart="51.27" type="typedist" departLane="best" departPos="100" >
        <route edges="rh-921144236#1"/>
    </vehicle>
    <vehicle id="142" depart="51.47" type="typedist" departLane="best" departPos="100" >
        <route edges="rh-921144236#1"/>
    </vehicle>
    <vehicle id="143" depart="52.17" type="typedist" departLane="best" departPos="100" >
        <route edges="y-921158505 ym1075130526#1"/>
    </vehicle>
    <vehicle id="144" depart="52.38" type="typedist" departLane="best" departPos="100" >
        <route edges="y-921158505 y1221681662#5 gh-252631954"/>
    </vehicle>
    <vehicle id="145" depart="52.67" type="typedist" departLane="best" departPos="100" >
        <route edges="r888793511#0 rb1221681667#0 rb1221681667#3"/>
    </vehicle>
    <vehicle id="146" depart="53.27" type="typedist" departLane="best" departPos="100" >
        <route edges="gm-637922365 ym-343737324#0 ym-1075130526#1 rb1221681667#3 gm-704180166#2 gm-704180166#1"/>
    </vehicle>
    <vehicle id="147" depart="53.64" type="typedist" departLane="best" departPos="100" >
        <route edges="r888793511#0 rb1221681667#0"/>
    </vehicle>
    <vehicle id="148" depart="54.29" type="typedist" departLane="best" departPos="100" >
        <route edges="rb1221681667#0 y921160679 y-921158505 y1221681662#5"/>
    </vehicle>
    <vehicle id="149" depart="55.02" type="typedist" departLane="best" departPos="100" >
        <route edges="gh1362547081 rb1221681667#0 rb1221681667#3"/>
    </vehicle>
    <vehicle id="150" depart="55.09" type="typedist" departLane="best" departPos="100" >
        <route edges="rb1221681667#0"/>
    </vehicle>
    <vehicle id="151" depart="55.61" type="typedist" departLane="best" departPos="100" >
        <route edges="r888793511#0 rb1221681667#0 rb1221681667#3"/>
    </vehicle>
    <vehicle id="152" depart="55.91" type="typedist" departLane="best" departPos="100" >
        <route edges="yh-343737533#9 gb1221681667#7"/>
    </vehicle>
    <vehicle id="153" depart="55.97" type="typedist" departLane="best" departPos="100" >
        <route edges="yh2526319540 rb1221681667#0 y921160679"/>
    </vehicle>
    <vehicle id="154" depart="56.04" type="typedist" departLane="best" departPos="100" >
        <route edges="r888793511#0 rb1221681667#0"/>
    </vehicle>
    <vehicle id="155" depart="56.29" type="typedist" departLane="best" departPos="100" >
        <route edges="rb1221681667#0 rb1221681667#3"/>
    </vehicle>
    <vehicle id="156" depart="56.38" type="typedist" departLane="best" departPos="100" >
        <route edges="rb1221681667#0 rb1221681667#3"/>
    </vehicle>
    <vehicle id="157" depart="56.85" type="typedist" departLane="best" departPos="100" >
        <route edges="rb1221681667#3 gb1221681667#4 gb1221681667#5"/>
    </vehicle>
    <vehicle id="158" depart="57.22" type="typedist" departLane="best" departPos="100" >
        <route edges="gh1221681662#0.165 yh1221681662#1"/>
    </vehicle>
    <vehicle id="159" depart="57.25" type="typedist" departLane="best" departPos="100" >
        <route edges="r888793511#0 rb1221681667#0 rb1221681667#3"/>
    </vehicle>
    <vehicle id="160" depart="57.63" type="typedist" departLane="best" departPos="100" >
        <route edges="yh2526319540 rb1221681667#0 rb1221681667#3"/>
    </vehicle>
    <vehicle id="161" depart="57.72" type="typedist" departLane="best" departPos="100" >
        <route edges="r888793511#0 rb1221681667#0 rb1221681667#3"/>
    </vehicle>
    <vehicle id="162" depart="57.84" type="typedist" departLane="best" departPos="100" >
        <route edges="yh1221681662#1"/>
    </vehicle>
    <vehicle id="163" depart="57.89" type="typedist" departLane="best" departPos="100" >
        <route edges="r888793511#0 rb1221681667#0 rb1221681667#3"/>
    </vehicle>
    <vehicle id="164" depart="58.22" type="typedist" departLane="best" departPos="100" >
        <route edges="gh1362547081 rb1221681667#0 rb1221681667#3"/>
    </vehicle>
    <vehicle id="165" depart="58.28" type="typedist" departLane="best" departPos="100" >
        <route edges="r888793511#0 rb1221681667#0"/>
    </vehicle>
    <vehicle id="166" depart="58.43" type="typedist" departLane="best" departPos="100" >
        <route edges="rh-921144236#1"/>
    </vehicle>
    <vehicle id="167" depart="58.64" type="typedist" departLane="best" departPos="100" >
        <route edges="rb1221681667#3"/>
    </vehicle>
    <vehicle id="168" depart="58.72" type="typedist" departLane="best" departPos="100" >
        <route edges="gh343737533#3 yh343737533#4"/>
    </vehicle>
    <vehicle id="169" depart="59.23" type="typedist" departLane="best" departPos="100" >
        <route edges="r888793511#0 rb1221681667#0 rb1221681667#3"/>
    </vehicle>
    <vehicle id="170" depart="59.86" type="typedist" departLane="best" departPos="100" >
        <route edges="r888793511#0 y1362547077#1"/>
    </vehicle>
    <vehicle id="171" depart="60.50" type="typedist" departLane="best" departPos="100" >
        <route edges="yh-343737533#13 yh-343737533#9"/>
    </vehicle>
    <vehicle id="172" depart="60.57" type="typedist" departLane="best" departPos="100" >
        <route edges="yh2526319540 rb1221681667#0 rb1221681667#3"/>
    </vehicle>
    <vehicle id="173" depart="60.88" type="typedist" departLane="best" departPos="100" >
        <route edges="rb1221681667#0 rb1221681667#3"/>
    </vehicle>