<?xml version="1.0" encoding="UTF-8"?>

<!-- generated on 2025-12-02 13:53:55.817811 by routeSampler.py v1_22_0+0002-63e50f52594
<configuration>
    <route-files value="D:/Cong viec tai VTS/4 Sumo thai nguyen/route_sampler/only_rou.xml"/>
    <edgedata-files value="D:/Cong viec tai VTS/4 Sumo thai nguyen/route_sampler/edgeData.xml"/>
    <output-file value="D:/Cong viec tai VTS/4 Sumo thai nguyen/rou_sampler.rou.xml"/>
    <attributes value="type=&quot;typedist&quot; departLane=&quot;best&quot; departPos=&quot;100&quot; "/>
</configuration>
-->

<routes xmlns:xsi="http://www.w3.org/2001/XMLSchema-instance" xsi:noNamespaceSchemaLocation="http://sumo.dlr.de/xsd/routes_file.xsd">
<!-- begin="0.0" end="900.0" -->
    <vehicle id="0" depart="0.11" type="typedist" departLane="best" departPos="100" >
        <route edges="r888793511#0 rb1221681667#0"/>
    </vehicle>
    <vehicle id="1" depart="0.17" type="typedist" departLane="best" departPos="100" >
        <route edges="rb1221681667#3"/>
    </vehicle>
    <vehicle id="2" depart="0.58" type="typedist" departLane="best" departPos="100" >
        <route edges="rb1221681667#0 rb1221681667#3"/>
    </vehicle>
    <vehicle id="3" depart="0.92" type="typedist" departLane="best" departPos="100" >
        <route edges="rm-746291868#1 yh-343737533#9"/>
    </vehicle>
    <vehicle id="4" depart="0.98" type="typedist" departLane="best" departPos="100" >
        <route edges="r888793511#0 rb1221681667#0"/>
    </vehicle>
    <vehicle id="5" depart="1.02" type="typedist" departLane="best" departPos="100" >
        <route edges="gh1221681662#0.165 yh1221681662#1"/>
    </vehicle>
    <vehicle id="6" depart="1.02" type="typedist" departLane="best" departPos="100" >
        <route edges="rh-921144236#1"/>
    </vehicle>
    <vehicle id="7" depart="1.18" type="typedist" departLane="best" departPos="100" >
        <route edges="gh1221681662#0.165 gm-637922365 ym343737324#1"/>
    </vehicle>
    <vehicle id="8" depart="1.23" type="typedist" departLane="best" departPos="100" >
        <route edges="gm637922365 yh1221681662#1 gb1221681662#3 yb1221681662#4 y921160679"/>
    </vehicle>
    <vehicle id="9" depart="1.74" type="typedist" departLane="best" departPos="100" >
        <route edges="r888793511#0 y1362547077#1"/>
    </vehicle>
    <vehicle id="10" depart="1.97" type="typedist" departLane="best" departPos="100" >
        <route edges="rh-921144236#1"/>
    </vehicle>
    <vehicle id="11" depart="2.35" type="typedist" departLane="best" departPos="100" >
        <route edges="yb1221681662#4 y1221681662#5 gb746290966#1"/>
    </vehicle>
    <vehicle id="12" depart="2.40" type="typedist" departLane="best" departPos="100" >
        <route edges="r888793511#0 y1362547077#1"/>
    </vehicle>
    <vehicle id="13" depart="2.43" type="typedist" departLane="best" departPos="100" >
        <route edges="gh1221681662#0.165 gm-637922365 ym-343737324#0"/>
    </vehicle>
    <vehicle id="14" depart="2.67" type="typedist" departLane="best" departPos="100" >
        <route edges="r888793511#0 rb1221681667#0"/>
    </vehicle>
    <vehicle id="15" depart="2.86" type="typedist" departLane="best" departPos="100" >
        <route edges="yh-343737533#9 gb1221681667#7"/>
    </vehicle>
    <vehicle id="16" depart="3.18" type="typedist" departLane="best" departPos="100" >
        <route edges="rb1221681667#3"/>
    </vehicle>
    <vehicle id="17" depart="3.22" type="typedist" departLane="best" departPos="100" >
        <route edges="gh1221681662#0.165 yh1221681662#1"/>
    </vehicle>
    <vehicle id="18" depart="3.25" type="typedist" departLane="best" departPos="100" >
        <route edges="gh343737533#3 yh343737533#4"/>
    </vehicle>
    <vehicle id="19" depart="3.34" type="typedist" departLane="best" departPos="100" >
        <route edges="r888793511#0 y1362547077#1"/>
    </vehicle>
    <vehicle id="20" depart="3.39" type="typedist" departLane="best" departPos="100" >
        <route edges="rm-746291868#1 ym704180166#0 rh-921144236#1 yb1221681662#4 y1221681662#5 gb746290966#1"/>
    </vehicle>
    <vehicle id="21" depart="3.91" type="typedist" departLane="best" departPos="100" >
        <route edges="rh-921144236#1"/>
    </vehicle>
    <vehicle id="22" depart="4.48" type="typedist" departLane="best" departPos="100" >
        <route edges="r888793511#0 rb1221681667#0 ym1075130526#1"/>
    </vehicle>
    <vehicle id="23" depart="5.07" type="typedist" departLane="best" departPos="100" >
        <route edges="rh-921144236#1"/>
    </vehicle>
    <vehicle id="24" depart="5.10" type="typedist" departLane="best" departPos="100" >
        <route edges="rb1221681667#0 rb1221681667#3"/>
    </vehicle>
    <vehicle id="25" depart="5.29" type="typedist" departLane="best" departPos="100" >
        <route edges="rh-921144236#1"/>
    </vehicle>
    <vehicle id="26" depart="5.47" type="typedist" departLane="best" departPos="100" >
        <route edges="r888793511#0 rb1221681667#0"/>
    </vehicle>
    <vehicle id="27" depart="5.85" type="typedist" departLane="best" departPos="100" >
        <route edges="rh-921144236#1"/>
    </vehicle>
    <vehicle id="28" depart="6.11" type="typedist" departLane="best" departPos="100" >
        <route edges="rb1221681667#0 y921160679 y-921158505 y1221681662#5 gb746290966#1"/>
    </vehicle>
    <vehicle id="29" depart="7.01" type="typedist" departLane="best" departPos="100" >
        <route edges="rb1221681667#3"/>
    </vehicle>
    <vehicle id="30" depart="7.03" type="typedist" departLane="best" departPos="100" >
        <route edges="yh-343737533#9 gh-343737533#5 gm343737324#0 gm637922365 yh1221681662#1"/>
    </vehicle>
    <vehicle id="31" depart="7.23" type="typedist" departLane="best" departPos="100" >
        <route edges="rb1221681667#0"/>
    </vehicle>
    <vehicle id="32" depart="7.25" type="typedist" departLane="best" departPos="100" >
        <route edges="r888793511#0 rb1221681667#0 rb1221681667#3"/>
    </vehicle>
    <vehicle id="33" depart="7.28" type="typedist" departLane="best" departPos="100" >
        <route edges="rh-921144236#1"/>
    </vehicle>
    <vehicle id="34" depart="7.33" type="typedist" departLane="best" departPos="100" >
        <route edges="gh1221681662#0.165 yh1221681662#1 gh-343737533#5 ym-1075130526#1 rb1221681667#3 gb1221681667#4"/>
    </vehicle>
    <vehicle id="35" depart="7.38" type="typedist" departLane="best" departPos="100" >
        <route edges="rh-921144236#1"/>
    </vehicle>
    <vehicle id="36" depart="7.71" type="typedist" departLane="best" departPos="100" >
        <route edges="rb1221681667#3"/>
    </vehicle>
    <vehicle id="37" depart="7.95" type="typedist" departLane="best" departPos="100" >
        <route edges="y-921158505 ym1075130526#1 yh343737533#4"/>
    </vehicle>
    <vehicle id="38" depart="8.20" type="typedist" departLane="best" departPos="100" >
        <route edges="rm-746291868#1 yh-343737533#9 gb1221681667#7"/>
    </vehicle>
    <vehicle id="39" depart="8.87" type="typedist" departLane="best" departPos="100" >
        <route edges="r888793511#0 rb1221681667#0 rb1221681667#3 gb1221681667#4"/>
    </vehicle>
    <vehicle id="40" depart="8.97" type="typedist" departLane="best" departPos="100" >
        <route edges="gh343737533#3 yh343737533#4"/>
    </vehicle>
    <vehicle id="41" depart="9.06" type="typedist" departLane="best" departPos="100" >
        <route edges="gm-637922365 ym-343737324#0 yh343737533#4 yh343737533#7 gm746291868#0"/>
    </vehicle>
    <vehicle id="42" depart="9.07" type="typedist" departLane="best" departPos="100" >
        <route edges="y1221681662#5 gh-252631954 yh2526319540 rb1221681667#0 rb1221681667#3 gm-704180166#2 gm-704180166#1 gm746291868#0"/>
    </vehicle>
    <vehicle id="43" depart="9.33" type="typedist" departLane="best" departPos="100" >
        <route edges="rb1221681667#0 rb1221681667#3"/>
    </vehicle>
    <vehicle id="44" depart="9.47" type="typedist" departLane="best" departPos="100" >
        <route edges="gh1221681662#0.165 yh1221681662#1 gb1221681662#3"/>
    </vehicle>
    <vehicle id="45" depart="9.62" type="typedist" departLane="best" departPos="100" >
        <route edges="gh1221681662#0.165 yh1221681662#1"/>
    </vehicle>
    <vehicle id="46" depart="9.93" type="typedist" departLane="best" departPos="100" >
        <route edges="rh-921144236#1"/>
    </vehicle>
    <vehicle id="47" depart="9.94" type="typedist" departLane="best" departPos="100" >
        <route edges="rb1221681667#0 rb1221681667#3"/>
    </vehicle>
    <vehicle id="48" depart="10.41" type="typedist" departLane="best" departPos="100" >
        <route edges="yh2526319540 y1362547077#1"/>
    </vehicle>
    <vehicle id="49" depart="10.67" type="typedist" departLane="best" departPos="100" >
        <route edges="r888793511#0 y1362547077#1"/>
    </vehicle>
    <vehicle id="50" depart="10.71" type="typedist" departLane="best" departPos="100" >
        <route edges="ym704180166#0 rh-921144236#1 yb1221681662#4 y1221681662#5 gh-252631954 yh2526319540 rb1221681667#0"/>
    </vehicle>
    <vehicle id="51" depart="10.86" type="typedist" departLane="best" departPos="100" >
        <route edges="rb1221681667#0 rb1221681667#3"/>
    </vehicle>
    <vehicle id="52" depart="10.91" type="typedist" departLane="best" departPos="100" >
        <route edges="gh1362547081 gb746290966#1"/>
    </vehicle>
    <vehicle id="53" depart="11.15" type="typedist" departLane="best" departPos="100" >
        <route edges="r888793511#0 rb1221681667#0 rb1221681667#3 gb1221681667#4 gb1221681667#5 yh343737533#7"/>
    </vehicle>
    <vehicle id="54" depart="11.34" type="typedist" departLane="best" departPos="100" >
        <route edges="ym-1075130526#1 rb1221681667#3 gm-704180166#2 gm-704180166#1"/>
    </vehicle>
    <vehicle id="55" depart="11.91" type="typedist" departLane="best" departPos="100" >
        <route edges="rh-921144236#1"/>
    </vehicle>
    <vehicle id="56" depart="11.94" type="typedist" departLane="best" departPos="100" >
        <route edges="rh-921144236#1"/>
    </vehicle>
    <vehicle id="57" depart="12.08" type="typedist" departLane="best" departPos="100" >
        <route edges="gh1221681662#0.165 yh1221681662#1 gb1221681662#3 yb1221681662#4 y1221681662#5 y1362547077#1"/>
    </vehicle>
    <vehicle id="58" depart="12.78" type="typedist" departLane="best" departPos="100" >
        <route edges="yb1221681662#4 ym1075130526#1 yh343737533#4 yh343737533#7 gh343737533#10"/>
    </vehicle>
    <vehicle id="59" depart="12.81" type="typedist" departLane="best" departPos="100" >
        <route edges="r888793511#0 rb1221681667#0"/>
    </vehicle>
    <vehicle id="60" depart="12.85" type="typedist" departLane="best" departPos="100" >
        <route edges="y-921158505 rb1221681667#3 gb1221681667#4 gb1221681667#5 gh-343737533#5 ym-1075130526#1"/>
    </vehicle>
    <vehicle id="61" depart="13.25" type="typedist" departLane="best" departPos="100" >
        <route edges="rh-921144236#1"/>
    </vehicle>
    <vehicle id="62" depart="13.33" type="typedist" departLane="best" departPos="100" >
        <route edges="gh1221681662#0.165 gm-637922365 ym-343737324#0"/>
    </vehicle>
    <vehicle id="63" depart="13.38" type="typedist" departLane="best" departPos="100" >
        <route edges="gh343737533#3 yh343737533#4"/>
    </vehicle>
    <vehicle id="64" depart="13.69" type="typedist" departLane="best" departPos="100" >
        <route edges="yh343737533#7 ym704180166#0 rh-921144236#1 yb1221681662#4 y921160679 y-921158505 rb1221681667#3 gm-704180166#2"/>
    </vehicle>
    <vehicle id="65" depart="14.01" type="typedist" departLane="best" departPos="100" >
        <route edges="rb1221681667#0 rb1221681667#3"/>
    </vehicle>
    <vehicle id="66" depart="14.05" type="typedist" departLane="best" departPos="100" >
        <route edges="gh1221681662#0.165 yh1221681662#1"/>
    </vehicle>
    <vehicle id="67" depart="14.05" type="typedist" departLane="best" departPos="100" >
        <route edges="rh-921144236#1"/>
    </vehicle>
    <vehicle id="68" depart="14.11" type="typedist" departLane="best" departPos="100" >
        <route edges="yh2526319540 rb1221681667#0 rb1221681667#3"/>
    </vehicle>
    <vehicle id="69" depart="14.14" type="typedist" departLane="best" departPos="100" >
        <route edges="gm-704180166#1 yh-343737533#9 gh-343737533#5 gm343737324#0 ym343737324#1"/>
    </vehicle>
    <vehicle id="70" depart="14.16" type="typedist" departLane="best" departPos="100" >
        <route edges="rb1221681667#3 gb1221681667#4 gb1221681667#5 yh343737533#7 ym704180166#0 rh-921144236#1 yb1221681662#4 y1221681662#5 y1362547077#1"/>
    </vehicle>
    <vehicle id="71" depart="14.20" type="typedist" departLane="best" departPos="100" >
        <route edges="gh1221681662#0.165 yh1221681662#1"/>
    </vehicle>
    <vehicle id="72" depart="14.30" type="typedist" departLane="best" departPos="100" >
        <route edges="rb1221681667#3"/>
    </vehicle>
    <vehicle id="73" depart="15.13" type="typedist" departLane="best" departPos="100" >
        <route edges="rb1221681667#0 rb1221681667#3"/>
    </vehicle>
    <vehicle id="74" depart="15.22" type="typedist" departLane="best" departPos="100" >
        <route edges="y1221681662#5 gh-252631954 yh2526319540 rb1221681667#0 rb1221681667#3 gb1221681667#4 gb1221681667#5 gb1221681667#7"/>
    </vehicle>
    <vehicle id="75" depart="15.23" type="typedist" departLane="best" departPos="100" >
        <route edges="rb1221681667#3"/>
    </vehicle>
    <vehicle id="76" depart="15.44" type="typedist" departLane="best" departPos="100" >
        <route edges="gh343737533#3 ym-1075130526#1 y1221681662#5 gb746290966#1"/>
    </vehicle>
    <vehicle id="77" depart="15.59" type="typedist" departLane="best" departPos="100" >
        <route edges="rh-921144236#1"/>
    </vehicle>
    <vehicle id="78" depart="15.69" type="typedist" departLane="best" departPos="100" >
        <route edges="rh-921144236#1 yb1221681662#4 y921160679"/>
    </vehicle>
    <vehicle id="79" depart="15.72" type="typedist" departLane="best" departPos="100" >
        <route edges="y1221681662#5 gh-252631954 yh2526319540 rb1221681667#0 rb1221681667#3 gb1221681667#4"/>
    </vehicle>
    <vehicle id="80" depart="16.05" type="typedist" departLane="best" departPos="100" >
        <route edges="r888793511#0 y1362547077#1"/>
    </vehicle>
    <vehicle id="81" depart="16.09" type="typedist" departLane="best" departPos="100" >
        <route edges="rm-746291868#1 yh-343737533#9"/>
    </vehicle>
    <vehicle id="82" depart="16.38" type="typedist" departLane="best" departPos="100" >
        <route edges="yh2526319540 rb1221681667#0 rb1221681667#3"/>
    </vehicle>
    <vehicle id="83" depart="16.44" type="typedist" departLane="best" departPos="100" >
        <route edges="gh1221681662#0.165 yh1221681662#1 gb1221681662#3 yb1221681662#4"/>
    </vehicle>
    <vehicle id="84" depart="16.49" type="typedist" departLane="best" departPos="100" >
        <route edges="ym-343737324#0 yh343737533#4 yh343737533#7 gm746291868#0"/>
    </vehicle>
    <vehicle id="85" depart="16.50" type="typedist" departLane="best" departPos="100" >
        <route edges="yb1221681662#4 y1221681662#5 gb746290966#1"/>
    </vehicle>
    <vehicle id="86" depart="16.61" type="typedist" departLane="best" departPos="100" >
        <route edges="rb1221681667#0"/>
    </vehicle>
    <vehicle id="87" depart="16.69" type="typedist" departLane="best" departPos="100" >
        <route edges="r888793511#0 y1362547077#1"/>
    </vehicle>
    <vehicle id="88" depart="16.70" type="typedist" departLane="best" departPos="100" >
        <route edges="yh343737533#4"/>
    </vehicle>
    <vehicle id="89" depart="16.91" type="typedist" departLane="best" departPos="100" >
        <route edges="rh-921144236#1"/>
    </vehicle>
    <vehicle id="90" depart="16.99" type="typedist" departLane="best" departPos="100" >
        <route edges="r888793511#0 rb1221681667#0 rb1221681667#3 gb1221681667#4 gb1221681667#5 gb1221681667#7"/>
    </vehicle>
    <vehicle id="91" depart="17.19" type="typedist" departLane="best" departPos="100" >
        <route edges="gb1221681667#4 gb1221681667#5 yh343737533#7 gm746291868#0"/>
    </vehicle>
    <vehicle id="92" depart="17.19" type="typedist" departLane="best" departPos="100" >
        <route edges="r888793511#0 rb1221681667#0"/>
    </vehicle>
    <vehicle id="93" depart="17.32" type="typedist" departLane="best" departPos="100" >
        <route edges="yh343737533#4 yh343737533#7 gh343737533#10 yh-343737533#13 yh-343737533#9"/>
    </vehicle>
    <vehicle id="94" depart="17.39" type="typedist" departLane="best" departPos="100" >
        <route edges="rm-746291868#1 yh-343737533#9 gb1221681667#7"/>
    </vehicle>
    <vehicle id="95" depart="17.49" type="typedist" departLane="best" departPos="100" >
        <route edges="rh-921144236#1"/>
    </vehicle>
    <vehicle id="96" depart="17.67" type="typedist" departLane="best" departPos="100" >
        <route edges="rb1221681667#3"/>
    </vehicle>
    <vehicle id="97" depart="17.76" type="typedist" departLane="best" departPos="100" >
        <route edges="yh1221681662#1 gb1221681662#3 yb1221681662#4 y1221681662#5 gh-252631954"/>
    </vehicle>
    <vehicle id="98" depart="18.02" type="typedist" departLane="best" departPos="100" >
        <route edges="yh343737533#7 gh343737533#10"/>
    </vehicle>
    <vehicle id="99" depart="18.03" type="typedist" departLane="best" departPos="100" >
        <route edges="yh-343737533#13 yh-343737533#9"/>
    </vehicle>
    <vehicle id="100" depart="18.43" type="typedist" departLane="best" departPos="100" >
        <route edges="rb1221681667#3"/>
    </vehicle>
    <vehicle id="101" depart="18.44" type="typedist" departLane="best" departPos="100" >
        <route edges="rb1221681667#3"/>
    </vehicle>
    <vehicle id="102" depart="18.58" type="typedist" departLane="best" departPos="100" >
        <route edges="r888793511#0 rb1221681667#0 rb1221681667#3"/>
    </vehicle>
    <vehicle id="103" depart="18.67" type="typedist" departLane="best" departPos="100" >
        <route edges="y-921158505 rb1221681667#3 gm-704180166#2 gm-704180166#1 gh343737533#10"/>
    </vehicle>
    <vehicle id="104" depart="18.84" type="typedist" departLane="best" departPos="100" >
        <route edges="r888793511#0 rb1221681667#0"/>
    </vehicle>
    <vehicle id="105" depart="19.06" type="typedist" departLane="best" departPos="100" >
        <route edges="rb1221681667#3 gb1221681667#4 gb1221681667#5 yh343737533#7 ym704180166#0 rh-921144236#1 yb1221681662#4 y1221681662#5 gb746290966#1"/>
    </vehicle>
    <vehicle id="106" depart="19.07" type="typedist" departLane="best" departPos="100" >
        <route edges="rb1221681667#0 rb1221681667#3"/>
    </vehicle>
    <vehicle id="107" depart="19.48" type="typedist" departLane="best" departPos="100" >
        <route edges="gh1221681662#0.165 yh1221681662#1"/>
    </vehicle>
    <vehicle id="108" depart="19.56" type="typedist" departLane="best" departPos="100" >
        <route edges="gh343737533#3 yh343737533#4 yh343737533#7 ym704180166#0 rh-921144236#1 yb1221681662#4 ym1075130526#1"/>
    </vehicle>
    <vehicle id="109" depart="19.76" type="typedist" departLane="best" departPos="100" >
        <route edges="gh343737533#3 yh343737533#4"/>
    </vehicle>
    <vehicle id="110" depart="19.92" type="typedist" departLane="best" departPos="100" >
        <route edges="rb1221681667#3"/>
    </vehicle>
    <vehicle id="111" depart="19.94" type="typedist" departLane="best" departPos="100" >
        <route edges="rh-921144236#1"/>
    </vehicle>
    <vehicle id="112" depart="20.13" type="typedist" departLane="best" departPos="100" >
        <route edges="yh-343737533#9 gb1221681667#7"/>
    </vehicle>
    <vehicle id="113" depart="20.24" type="typedist" departLane="best" departPos="100" >
        <route edges="r888793511#0 y1362547077#1"/>
    </vehicle>
    <vehicle id="114" depart="20.34" type="typedist" departLane="best" departPos="100" >
        <route edges="gh1221681662#0.165 yh1221681662#1 gb1221681662#3 yb1221681662#4 y1221681662#5 gb746290966#1"/>
    </vehicle>
    <vehicle id="115" depart="20.96" type="typedist" departLane="best" departPos="100" >
        <route edges="rb1221681667#3"/>
    </vehicle>
    <vehicle id="116" depart="21.40" type="typedist" departLane="best" departPos="100" >
        <route edges="rm-746291868#1 yh-343737533#9 gb1221681667#7"/>
    </vehicle>
    <vehicle id="117" depart="21.70" type="typedist" departLane="best" departPos="100" >
        <route edges="gh1362547081 rb1221681667#0 rb1221681667#3"/>
    </vehicle>
    <vehicle id="118" depart="21.72" type="typedist" departLane="best" departPos="100" >
        <route edges="gb1221681667#5 yh343737533#7 gh343737533#10 yh-343737533#13 yh-343737533#9"/>
    </vehicle>
    <vehicle id="119" depart="21.75" type="typedist" departLane="best" departPos="100" >
        <route edges="gh1362547081 rb1221681667#0"/>
    </vehicle>
    <vehicle id="120" depart="21.76" type="typedist" departLane="best" departPos="100" >
        <route edges="gm-637922365 ym-343737324#0 ym-1075130526#1 y1221681662#5 y1362547077#1"/>
    </vehicle>
    <vehicle id="121" depart="21.82" type="typedist" departLane="best" departPos="100" >
        <route edges="rm-746291868#1 yh-343737533#9"/>
    </vehicle>
    <vehicle id="122" depart="22.51" type="typedist" departLane="best" departPos="100" >
        <route edges="r888793511#0 y1362547077#1"/>
    </vehicle>
    <vehicle id="123" depart="22.80" type="typedist" departLane="best" departPos="100" >
        <route edges="rh-921144236#1"/>
    </vehicle>
    <vehicle id="124" depart="22.88" type="typedist" departLane="best" departPos="100" >
        <route edges="yh2526319540 y1362547077#1"/>
    </vehicle>
    <vehicle id="125" depart="22.90" type="typedist" departLane="best" departPos="100" >
        <route edges="rh-921144236#1"/>
    </vehicle>
    <vehicle id="126" depart="23.02" type="typedist" departLane="best" departPos="100" >
        <route edges="gh343737533#3 ym-1075130526#1 y1221681662#5 gb746290966#1"/>
    </vehicle>
    <vehicle id="127" depart="23.63" type="typedist" departLane="best" departPos="100" >
        <route edges="rm-746291868#1 yh-343737533#9 gh-343737533#5 ym-1075130526#1 rb1221681667#3 gm-704180166#2 gm-704180166#1"/>
    </vehicle>
    <vehicle id="128" depart="23.75" type="typedist" departLane="best" departPos="100" >
        <route edges="rb1221681667#3"/>
    </vehicle>
    <vehicle id="129" depart="24.46" type="typedist" departLane="best" departPos="100" >
        <route edges="gm-637922365 ym-343737324#0 ym-1075130526#1 rb1221681667#3 gb1221681667#4"/>
    </vehicle>
    <vehicle id="130" depart="24.74" type="typedist" departLane="best" departPos="100" >
        <route edges="rh-921144236#1"/>
    </vehicle>
    <vehicle id="131" depart="25.49" type="typedist" departLane="best" departPos="100" >
        <route edges="r888793511#0 rb1221681667#0"/>
    </vehicle>
    <vehicle id="132" depart="25.64" type="typedist" departLane="best" departPos="100" >
        <route edges="rb1221681667#3"/>
    </vehicle>
    <vehicle id="133" depart="25.74" type="typedist" departLane="best" departPos="100" >
        <route edges="ym1075130526#1 yh343737533#4 yh343737533#7 gm746291868#0"/>
    </vehicle>
    <vehicle id="134" depart="26.08" type="typedist" departLane="best" departPos="100" >
        <route edges="r888793511#0 rb1221681667#0 y921160679"/>
    </vehicle>
    <vehicle id="135" depart="26.53" type="typedist" departLane="best" departPos="100" >
        <route edges="gh343737533#3 gm343737324#0 ym343737324#1"/>
    </vehicle>
    <vehicle id="136" depart="26.82" type="typedist" departLane="best" departPos="100" >
        <route edges="r888793511#0 rb1221681667#0 rb1221681667#3"/>
    </vehicle>
    <vehicle id="137" depart="27.15" type="typedist" departLane="best" departPos="100" >
        <route edges="yh2526319540 rb1221681667#0 rb1221681667#3 gb1221681667#4 gb1221681667#5 gh-343737533#5"/>
    </vehicle>
    <vehicle id="138" depart="27.26" type="typedist" departLane="best" departPos="100" >
        <route edges="r888793511#0 y1362547077#1"/>
    </vehicle>
    <vehicle id="139" depart="27.31" type="typedist" departLane="best" departPos="100" >
        <route edges="r888793511#0 rb1221681667#0 rb1221681667#3"/>
    </vehicle>
    <vehicle id="140" depart="27.51" type="typedist" departLane="best" departPos="100" >
        <route edges="yh2526319540 rb1221681667#0 rb1221681667#3 gb1221681667#4 gb1221681667#5 yh343737533#7 ym704180166#0"/>
    </vehicle>
    <vehicle id="141" depart="27.54" type="typedist" departLane="best" departPos="100" >
        <route edges="rb1221681667#3"/>
    </vehicle>
    <vehicle id="142" depart="27.96" type="typedist" departLane="best" departPos="100" >
        <route edges="r888793511#0 rb1221681667#0"/>
    </vehicle>
    <vehicle id="143" depart="27.99" type="typedist" departLane="best" departPos="100" >
        <route edges="gh1221681662#0.165 yh1221681662#1 yh343737533#7"/>
    </vehicle>
    <vehicle id="144" depart="28.02" type="typedist" departLane="best" departPos="100" >
        <route edges="gh1221681662#0.165 yh1221681662#1"/>
    </vehicle>
    <vehicle id="145" depart="28.19" type="typedist" departLane="best" departPos="100" >
        <route edges="rb1221681667#0 rb1221681667#3 gb1221681667#4 gb1221681667#5 yh343737533#7 ym704180166#0 rh-921144236#1"/>
    </vehicle>
    <vehicle id="146" depart="28.23" type="typedist" departLane="best" departPos="100" >
        <route edges="gb1221681667#4 gb1221681667#5 gh-343737533#5 ym-1075130526#1 rb1221681667#3 gm-704180166#2"/>
    </vehicle>
    <vehicle id="147" depart="28.42" type="typedist" departLane="best" departPos="100" >
        <route edges="gh1221681662#0.165 yh1221681662#1"/>
    </vehicle>
    <vehicle id="148" depart="28.61" type="typedist" departLane="best" departPos="100" >
        <route edges="gh1221681662#0.165 yh1221681662#1 gb1221681662#3"/>
    </vehicle>
    <vehicle id="149" depart="28.82" type="typedist" departLane="best" departPos="100" >
        <route edges="rh-921144236#1"/>
    </vehicle>
    <vehicle id="150" depart="28.86" type="typedist" departLane="best" departPos="100" >
        <route edges="rb1221681667#0 rb1221681667#3"/>
    </vehicle>
    <vehicle id="151" depart="28.86" type="typedist" departLane="best" departPos="100" >
        <route edges="gb1221681667#5 yh343737533#7 gh343737533#10"/>
    </vehicle>
    <vehicle id="152" depart="28.95" type="typedist" departLane="best" departPos="100" >
        <route edges="gh1221681662#0.165 yh1221681662#1"/>
    </vehicle>
    <vehicle id="153" depart="28.95" type="typedist" departLane="best" departPos="100" >
        <route edges="yh1221681662#1"/>
    </vehicle>
    <vehicle id="154" depart="29.11" type="typedist" departLane="best" departPos="100" >
        <route edges="gh1221681662#0.165 yh1221681662#1 gh-343737533#5 gh-343737533#3"/>
    </vehicle>
    <vehicle id="155" depart="29.14" type="typedist" departLane="best" departPos="100" >
        <route edges="gb1221681667#4 gb1221681667#5 gh-343737533#5 ym-1075130526#1 rb1221681667#3 gm-704180166#2 gm-704180166#1"/>
    </vehicle>
    <vehicle id="156" depart="29.21" type="typedist" departLane="best" departPos="100" >
        <route edges="ym-343737324#2 gm637922365 yh1221681662#1 yh343737533#7 gh343737533#10"/>
    </vehicle>
    <vehicle id="157" depart="29.36" type="typedist" departLane="best" departPos="100" >
        <route edges="rb1221681667#0 rb1221681667#3"/>
    </vehicle>
    <vehicle id="158" depart="29.62" type="typedist" departLane="best" departPos="100" >
        <route edges="gh343737533#3 yh343737533#4 yh343737533#7 gm746291868#0"/>
    </vehicle>
    <vehicle id="159" depart="29.75" type="typedist" departLane="best" departPos="100" >
        <route edges="gm637922365 yh1221681662#1 yh343737533#7"/>
    </vehicle>
    <vehicle id="160" depart="29.93" type="typedist" departLane="best" departPos="100" >
        <route edges="gh343737533#3 yh343737533#4 yh343737533#7"/>
    </vehicle>
    <vehicle id="161" depart="30.25" type="typedist" departLane="best" departPos="100" >
        <route edges="gh1221681662#0.165 gm-637922365"/>
    </vehicle>
    <vehicle id="162" depart="30.29" type="typedist" departLane="best" departPos="100" >
        <route edges="rh-921144236#1 yb1221681662#4 y1221681662#5 gb746290966#1"/>
    </vehicle>
    <vehicle id="163" depart="30.44" type="typedist" departLane="best" departPos="100" >
        <route edges="rh-921144236#1"/>
    </vehicle>
    <vehicle id="164" depart="30.49" type="typedist" departLane="best" departPos="100" >
        <route edges="rh-921144236#1"/>
    </vehicle>
    <vehicle id="165" depart="30.57" type="typedist" departLane="best" departPos="100" >
        <route edges="rb1221681667#3 gb1221681667#4"/>
    </vehicle>
    <vehicle id="166" depart="30.64" type="typedist" departLane="best" departPos="100" >
        <route edges="r888793511#0 rb1221681667#0"/>
    </vehicle>
    <vehicle id="167" depart="30.69" type="typedist" departLane="best" departPos="100" >
        <route edges="rb1221681667#3 gb1221681667#4"/>
    </vehicle>
    <vehicle id="168" depart="30.86" type="typedist" departLane="best" departPos="100" >
        <route edges="rb1221681667#3"/>
    </vehicle>
    <vehicle id="169" depart="30.90" type="typedist" departLane="best" departPos="100" >
        <route edges="rb1221681667#3"/>
    </vehicle>
    <vehicle id="170" depart="30.96" type="typedist" departLane="best" departPos="100" >
        <route edges="gh1362547081 rb1221681667#0 rb1221681667#3"/>
    </vehicle>
    <vehicle id="171" depart="31.05" type="typedist" departLane="best" departPos="100" >
        <route edges="gh1221681662#0.165 yh1221681662#1 gb1221681662#3 yb1221681662#4 y1221681662#5"/>
    </vehicle>