<?xml version="1.0" encoding="UTF-8"?>

<!-- generated on 2025-12-02 11:30:01.424314 by routeSampler.py v1_22_0+0002-63e50f52594
<configuration>
    <route-files value="D:/Cong viec tai VTS/4 Sumo thai nguyen/route_sampler/only_rou.xml"/>
    <edgedata-files value="D:/Cong viec tai VTS/4 Sumo thai nguyen/route_sampler/edgeData.xml"/>
    <output-file value="D:/Cong viec tai VTS/4 Sumo thai nguyen/rou_sampler.rou.xml"/>
    <attributes value="type=&quot;typedist&quot; departLane=&quot;best&quot; departPos=&quot;100&quot; "/>
</configuration>
-->

<routes xmlns:xsi="http://www.w3.org/2001/XMLSchema-instance" xsi:noNamespaceSchemaLocation="http://sumo.dlr.de/xsd/routes_file.xsd">
<!-- begin="0.0" end="900.0" -->
    <vehicle id="0" depart="0.02" type="typedist" departLane="best" departPos="100" >
        <route edges="yh-343737533#9 gb1221681667#7"/>
    </vehicle>
    <vehicle id="1" depart="0.09" type="typedist" departLane="best" departPos="100" >
        <route edges="gb1221681662#3 yb1221681662#4 y921160679"/>
    </vehicle>
    <vehicle id="2" depart="0.13" type="typedist" departLane="best" departPos="100" >
        <route edges="gh1362547081 rb1221681667#0 rb1221681667#3"/>
    </vehicle>
    <vehicle id="3" depart="0.15" type="typedist" departLane="best" departPos="100" >
        <route edges="r888793511#0 rb1221681667#0"/>
    </vehicle>
    <vehicle id="4" depart="0.22" type="typedist" departLane="best" departPos="100" >
        <route edges="gh343737533#3 yh343737533#4 yh343737533#7 gm746291868#0"/>
    </vehicle>
    <vehicle id="5" depart="0.35" type="typedist" departLane="best" departPos="100" >
        <route edges="yh1221681662#1"/>
    </vehicle>
    <vehicle id="6" depart="0.37" type="typedist" departLane="best" departPos="100" >
        <route edges="gh1221681662#0.165 yh1221681662#1"/>
    </vehicle>
    <vehicle id="7" depart="0.43" type="typedist" departLane="best" departPos="100" >
        <route edges="rb1221681667#3"/>
    </vehicle>
    <vehicle id="8" depart="0.47" type="typedist" departLane="best" departPos="100" >
        <route edges="y1221681662#5 y1362547077#1"/>
    </vehicle>
    <vehicle id="9" depart="0.61" type="typedist" departLane="best" departPos="100" >
        <route edges="ym-343737324#0 yh343737533#4 yh343737533#7 gm746291868#0"/>
    </vehicle>
    <vehicle id="10" depart="0.75" type="typedist" departLane="best" departPos="100" >
        <route edges="r888793511#0 rb1221681667#0"/>
    </vehicle>
    <vehicle id="11" depart="0.76" type="typedist" departLane="best" departPos="100" >
        <route edges="rh-921144236#1"/>
    </vehicle>
    <vehicle id="12" depart="0.82" type="typedist" departLane="best" departPos="100" >
        <route edges="rb1221681667#0 rb1221681667#3"/>
    </vehicle>
    <vehicle id="13" depart="0.83" type="typedist" departLane="best" departPos="100" >
        <route edges="yh2526319540 rb1221681667#0 rb1221681667#3 gb1221681667#4 gb1221681667#5 yh343737533#7"/>
    </vehicle>
    <vehicle id="14" depart="0.91" type="typedist" departLane="best" departPos="100" >
        <route edges="gm-704180166#1 yh-343737533#9 gh-343737533#5 ym-1075130526#1"/>
    </vehicle>
    <vehicle id="15" depart="1.00" type="typedist" departLane="best" departPos="100" >
        <route edges="r888793511#0 rb1221681667#0"/>
    </vehicle>
    <vehicle id="16" depart="1.04" type="typedist" departLane="best" departPos="100" >
        <route edges="r888793511#0 y1362547077#1"/>
    </vehicle>
    <vehicle id="17" depart="1.05" type="typedist" departLane="best" departPos="100" >
        <route edges="r888793511#0 rb1221681667#0 rb1221681667#3"/>
    </vehicle>
    <vehicle id="18" depart="1.07" type="typedist" departLane="best" departPos="100" >
        <route edges="yh1221681662#1 gb1221681662#3 yb1221681662#4 y921160679"/>
    </vehicle>
    <vehicle id="19" depart="1.12" type="typedist" departLane="best" departPos="100" >
        <route edges="gh1221681662#0.165 yh1221681662#1"/>
    </vehicle>
    <vehicle id="20" depart="1.26" type="typedist" departLane="best" departPos="100" >
        <route edges="r888793511#0 rb1221681667#0"/>
    </vehicle>
    <vehicle id="21" depart="1.28" type="typedist" departLane="best" departPos="100" >
        <route edges="r888793511#0 rb1221681667#0 rb1221681667#3"/>
    </vehicle>
    <vehicle id="22" depart="1.40" type="typedist" departLane="best" departPos="100" >
        <route edges="yh343737533#4 yh343737533#7 ym704180166#0 rh-921144236#1 yb1221681662#4 y921160679 y-921158505 rb1221681667#3 gb1221681667#4"/>
    </vehicle>
    <vehicle id="23" depart="1.45" type="typedist" departLane="best" departPos="100" >
        <route edges="yh343737533#4 yh343737533#7 gm746291868#0"/>
    </vehicle>
    <vehicle id="24" depart="1.51" type="typedist" departLane="best" departPos="100" >
        <route edges="r888793511#0 rb1221681667#0 rb1221681667#3 gb1221681667#4 gb1221681667#5 gb1221681667#7"/>
    </vehicle>
    <vehicle id="25" depart="1.52" type="typedist" departLane="best" departPos="100" >
        <route edges="y1221681662#5 gh-252631954 yh2526319540 rb1221681667#0"/>
    </vehicle>
    <vehicle id="26" depart="1.63" type="typedist" departLane="best" departPos="100" >
        <route edges="yh1221681662#1"/>
    </vehicle>
    <vehicle id="27" depart="1.71" type="typedist" departLane="best" departPos="100" >
        <route edges="r888793511#0 rb1221681667#0 rb1221681667#3 gb1221681667#4"/>
    </vehicle>
    <vehicle id="28" depart="1.72" type="typedist" departLane="best" departPos="100" >
        <route edges="gh1362547081 rb1221681667#0 rb1221681667#3 gb1221681667#4 gb1221681667#5 yh343737533#7 ym704180166#0"/>
    </vehicle>
    <vehicle id="29" depart="1.79" type="typedist" departLane="best" departPos="100" >
        <route edges="rb1221681667#3"/>
    </vehicle>
    <vehicle id="30" depart="1.80" type="typedist" departLane="best" departPos="100" >
        <route edges="rm-746291868#1 yh-343737533#9 gb1221681667#7"/>
    </vehicle>
    <vehicle id="31" depart="2.01" type="typedist" departLane="best" departPos="100" >
        <route edges="r888793511#0 y1362547077#1"/>
    </vehicle>
    <vehicle id="32" depart="2.05" type="typedist" departLane="best" departPos="100" >
        <route edges="yh2526319540 rb1221681667#0 rb1221681667#3"/>
    </vehicle>
    <vehicle id="33" depart="2.14" type="typedist" departLane="best" departPos="100" >
        <route edges="r888793511#0 rb1221681667#0 rb1221681667#3"/>
    </vehicle>
    <vehicle id="34" depart="2.14" type="typedist" departLane="best" departPos="100" >
        <route edges="rh-921144236#1"/>
    </vehicle>
    <vehicle id="35" depart="2.21" type="typedist" departLane="best" departPos="100" >
        <route edges="gh1221681662#0.165 yh1221681662#1"/>
    </vehicle>
    <vehicle id="36" depart="2.24" type="typedist" departLane="best" departPos="100" >
        <route edges="yh1221681662#1 gb1221681662#3 yb1221681662#4 y921160679"/>
    </vehicle>
    <vehicle id="37" depart="2.26" type="typedist" departLane="best" departPos="100" >
        <route edges="ym-343737324#0 gh-343737533#3"/>
    </vehicle>
    <vehicle id="38" depart="2.36" type="typedist" departLane="best" departPos="100" >
        <route edges="rb1221681667#0 rb1221681667#3"/>
    </vehicle>
    <vehicle id="39" depart="2.44" type="typedist" departLane="best" departPos="100" >
        <route edges="yh2526319540 rb1221681667#0 rb1221681667#3"/>
    </vehicle>
    <vehicle id="40" depart="2.56" type="typedist" departLane="best" departPos="100" >
        <route edges="gh1362547081 rb1221681667#0 rb1221681667#3 gb1221681667#4 gb1221681667#5"/>
    </vehicle>
    <vehicle id="41" depart="2.60" type="typedist" departLane="best" departPos="100" >
        <route edges="rb1221681667#3"/>
    </vehicle>
    <vehicle id="42" depart="2.67" type="typedist" departLane="best" departPos="100" >
        <route edges="yb1221681662#4 ym1075130526#1 yh343737533#4"/>
    </vehicle>
    <vehicle id="43" depart="2.70" type="typedist" departLane="best" departPos="100" >
        <route edges="r888793511#0 rb1221681667#0 rb1221681667#3"/>
    </vehicle>
    <vehicle id="44" depart="2.73" type="typedist" departLane="best" departPos="100" >
        <route edges="rb1221681667#3"/>
    </vehicle>
    <vehicle id="45" depart="3.03" type="typedist" departLane="best" departPos="100" >
        <route edges="r888793511#0 rb1221681667#0 rb1221681667#3"/>
    </vehicle>
    <vehicle id="46" depart="3.05" type="typedist" departLane="best" departPos="100" >
        <route edges="rh-921144236#1 yb1221681662#4 y921160679 y-921158505 rb1221681667#3 gb1221681667#4"/>
    </vehicle>
    <vehicle id="47" depart="3.08" type="typedist" departLane="best" departPos="100" >
        <route edges="gm-704180166#1 yh-343737533#9 gh-343737533#5 gm343737324#0 gm637922365 yh1221681662#1"/>
    </vehicle>
    <vehicle id="48" depart="3.40" type="typedist" departLane="best" departPos="100" >
        <route edges="rb1221681667#3"/>
    </vehicle>
    <vehicle id="49" depart="3.66" type="typedist" departLane="best" departPos="100" >
        <route edges="rm-746291868#1 yh-343737533#9 gb1221681667#7"/>
    </vehicle>
    <vehicle id="50" depart="3.70" type="typedist" departLane="best" departPos="100" >
        <route edges="gh1362547081 rb1221681667#0 rb1221681667#3 gb1221681667#4"/>
    </vehicle>
    <vehicle id="51" depart="3.72" type="typedist" departLane="best" departPos="100" >
        <route edges="r888793511#0 rb1221681667#0 rb1221681667#3"/>
    </vehicle>
    <vehicle id="52" depart="3.85" type="typedist" departLane="best" departPos="100" >
        <route edges="rh-921144236#1"/>
    </vehicle>
    <vehicle id="53" depart="3.86" type="typedist" departLane="best" departPos="100" >
        <route edges="r888793511#0 rb1221681667#0"/>
    </vehicle>
    <vehicle id="54" depart="3.88" type="typedist" departLane="best" departPos="100" >
        <route edges="r888793511#0 y1362547077#1"/>
    </vehicle>
    <vehicle id="55" depart="3.90" type="typedist" departLane="best" departPos="100" >
        <route edges="rh-921144236#1"/>
    </vehicle>
    <vehicle id="56" depart="3.90" type="typedist" departLane="best" departPos="100" >
        <route edges="yh343737533#4 yh343737533#7 gh343737533#10 yh-343737533#13 yh-343737533#9"/>
    </vehicle>
    <vehicle id="57" depart="3.90" type="typedist" departLane="best" departPos="100" >
        <route edges="gh1362547081 rb1221681667#0 rb1221681667#3"/>
    </vehicle>
    <vehicle id="58" depart="3.90" type="typedist" departLane="best" departPos="100" >
        <route edges="r888793511#0 rb1221681667#0 rb1221681667#3"/>
    </vehicle>
    <vehicle id="59" depart="4.02" type="typedist" departLane="best" departPos="100" >
        <route edges="rb1221681667#0 rb1221681667#3"/>
    </vehicle>
    <vehicle id="60" depart="4.13" type="typedist" departLane="best" departPos="100" >
        <route edges="ym-343737324#0 yh343737533#4 yh343737533#7 ym704180166#0 rh-921144236#1 gb1221681667#5 gh-343737533#5 gm343737324#0 gm637922365 yh1221681662#1 gb1221681662#3"/>
    </vehicle>
    <vehicle id="61" depart="4.29" type="typedist" departLane="best" departPos="100" >
        <route edges="gh1362547081 rb1221681667#0"/>
    </vehicle>
    <vehicle id="62" depart="4.42" type="typedist" departLane="best" departPos="100" >
        <route edges="yh2526319540 gb746290966#1"/>
    </vehicle>
    <vehicle id="63" depart="4.48" type="typedist" departLane="best" departPos="100" >
        <route edges="ym704180166#0 rh-921144236#1 gb1221681667#5 yh343737533#7 gm746291868#0"/>
    </vehicle>
    <vehicle id="64" depart="4.48" type="typedist" departLane="best" departPos="100" >
        <route edges="rh-921144236#1"/>
    </vehicle>
    <vehicle id="65" depart="4.54" type="typedist" departLane="best" departPos="100" >
        <route edges="ym-343737324#2 ym-343737324#0 ym-1075130526#1 y1221681662#5 gh-252631954"/>
    </vehicle>
    <vehicle id="66" depart="4.59" type="typedist" departLane="best" departPos="100" >
        <route edges="gh343737533#3 yh343737533#4 yh343737533#7"/>
    </vehicle>
    <vehicle id="67" depart="4.72" type="typedist" departLane="best" departPos="100" >
        <route edges="gb1221681662#3 yb1221681662#4 ym1075130526#1 gh-343737533#3"/>
    </vehicle>
    <vehicle id="68" depart="4.73" type="typedist" departLane="best" departPos="100" >
        <route edges="r888793511#0 rb1221681667#0 ym1075130526#1 gh-343737533#3"/>
    </vehicle>
    <vehicle id="69" depart="4.75" type="typedist" departLane="best" departPos="100" >
        <route edges="rh-921144236#1"/>
    </vehicle>
    <vehicle id="70" depart="4.83" type="typedist" departLane="best" departPos="100" >
        <route edges="y1221681662#5 y1362547077#1"/>
    </vehicle>
    <vehicle id="71" depart="4.87" type="typedist" departLane="best" departPos="100" >
        <route edges="gh1362547081 rb1221681667#0 ym1075130526#1 gm343737324#0 ym343737324#1"/>
    </vehicle>
    <vehicle id="72" depart="4.87" type="typedist" departLane="best" departPos="100" >
        <route edges="gh1362547081 gb746290966#1"/>
    </vehicle>
    <vehicle id="73" depart="4.89" type="typedist" departLane="best" departPos="100" >
        <route edges="r888793511#0 rb1221681667#0 rb1221681667#3"/>
    </vehicle>
    <vehicle id="74" depart="4.94" type="typedist" departLane="best" departPos="100" >
        <route edges="r888793511#0 rb1221681667#0 rb1221681667#3"/>
    </vehicle>
    <vehicle id="75" depart="4.95" type="typedist" departLane="best" departPos="100" >
        <route edges="rh-921144236#1"/>
    </vehicle>
    <vehicle id="76" depart="4.98" type="typedist" departLane="best" departPos="100" >
        <route edges="r888793511#0 y1362547077#1"/>
    </vehicle>
    <vehicle id="77" depart="5.19" type="typedist" departLane="best" departPos="100" >
        <route edges="rb1221681667#3 gb1221681667#4 gb1221681667#5 yh343737533#7 ym704180166#0 rh-921144236#1 yb1221681662#4 y1221681662#5 gh-252631954 yh2526319540 rb1221681667#0"/>
    </vehicle>
    <vehicle id="78" depart="5.25" type="typedist" departLane="best" departPos="100" >
        <route edges="gb1221681662#3 yb1221681662#4 y921160679 y-921158505 rb1221681667#3 gb1221681667#4"/>
    </vehicle>
    <vehicle id="79" depart="5.27" type="typedist" departLane="best" departPos="100" >
        <route edges="gh1362547081 rb1221681667#0 y921160679 y-921158505 y1221681662#5"/>
    </vehicle>
    <vehicle id="80" depart="5.28" type="typedist" departLane="best" departPos="100" >
        <route edges="gh1221681662#0.165 yh1221681662#1 gb1221681662#3 yb1221681662#4 y1221681662#5 gh-252631954"/>
    </vehicle>
    <vehicle id="81" depart="5.35" type="typedist" departLane="best" departPos="100" >
        <route edges="gm343737324#0 gm637922365 yh1221681662#1 yh343737533#7 ym704180166#0 rh-921144236#1"/>
    </vehicle>
    <vehicle id="82" depart="5.54" type="typedist" departLane="best" departPos="100" >
        <route edges="yh343737533#4 yh343737533#7 ym704180166#0 rh-921144236#1 yb1221681662#4 y921160679 y-921158505 rb1221681667#3 gm-704180166#2 gm-704180166#1"/>
    </vehicle>
    <vehicle id="83" depart="5.54" type="typedist" departLane="best" departPos="100" >
        <route edges="rb1221681667#3"/>
    </vehicle>
    <vehicle id="84" depart="5.55" type="typedist" departLane="best" departPos="100" >
        <route edges="r888793511#0 rb1221681667#0"/>
    </vehicle>
    <vehicle id="85" depart="5.55" type="typedist" departLane="best" departPos="100" >
        <route edges="r888793511#0 rb1221681667#0 rb1221681667#3"/>
    </vehicle>
    <vehicle id="86" depart="5.56" type="typedist" departLane="best" departPos="100" >
        <route edges="r888793511#0 rb1221681667#0 rb1221681667#3"/>
    </vehicle>
    <vehicle id="87" depart="5.66" type="typedist" departLane="best" departPos="100" >
        <route edges="rb1221681667#3 gb1221681667#4"/>
    </vehicle>
    <vehicle id="88" depart="5.69" type="typedist" departLane="best" departPos="100" >
        <route edges="rh-921144236#1"/>
    </vehicle>
    <vehicle id="89" depart="5.74" type="typedist" departLane="best" departPos="100" >
        <route edges="yb1221681662#4 y1221681662#5 gb746290966#1"/>
    </vehicle>
    <vehicle id="90" depart="6.06" type="typedist" departLane="best" departPos="100" >
        <route edges="rb1221681667#0 rb1221681667#3"/>
    </vehicle>
    <vehicle id="91" depart="6.15" type="typedist" departLane="best" departPos="100" >
        <route edges="yb1221681662#4 ym1075130526#1 yh343737533#4"/>
    </vehicle>
    <vehicle id="92" depart="6.18" type="typedist" departLane="best" departPos="100" >
        <route edges="gh1221681662#0.165 yh1221681662#1 gb1221681662#3 yb1221681662#4 y1221681662#5 gb746290966#1"/>
    </vehicle>
    <vehicle id="93" depart="6.18" type="typedist" departLane="best" departPos="100" >
        <route edges="rb1221681667#3"/>
    </vehicle>
    <vehicle id="94" depart="6.21" type="typedist" departLane="best" departPos="100" >
        <route edges="gb1221681662#3 yb1221681662#4 y1221681662#5 gb746290966#1"/>
    </vehicle>
    <vehicle id="95" depart="6.27" type="typedist" departLane="best" departPos="100" >
        <route edges="yh1221681662#1 gb1221681662#3 yb1221681662#4 y1221681662#5 gb746290966#1"/>
    </vehicle>
    <vehicle id="96" depart="6.49" type="typedist" departLane="best" departPos="100" >
        <route edges="rh-921144236#1"/>
    </vehicle>
    <vehicle id="97" depart="6.49" type="typedist" departLane="best" departPos="100" >
        <route edges="r888793511#0 rb1221681667#0"/>
    </vehicle>
    <vehicle id="98" depart="6.58" type="typedist" departLane="best" departPos="100" >
        <route edges="gb1221681662#3 yb1221681662#4 y1221681662#5 gh-252631954"/>
    </vehicle>
    <vehicle id="99" depart="6.60" type="typedist" departLane="best" departPos="100" >
        <route edges="yh1221681662#1"/>
    </vehicle>
    <vehicle id="100" depart="6.60" type="typedist" departLane="best" departPos="100" >
        <route edges="rb1221681667#0 rb1221681667#3"/>
    </vehicle>
    <vehicle id="101" depart="6.72" type="typedist" departLane="best" departPos="100" >
        <route edges="gh1221681662#0.165 yh1221681662#1 yh343737533#7 gh343737533#10 yh-343737533#13 yh-343737533#9"/>
    </vehicle>
    <vehicle id="102" depart="6.75" type="typedist" departLane="best" departPos="100" >
        <route edges="rh-921144236#1"/>
    </vehicle>
    <vehicle id="103" depart="6.75" type="typedist" departLane="best" departPos="100" >
        <route edges="yh1221681662#1 gb1221681662#3 yb1221681662#4 y1221681662#5"/>
    </vehicle>
    <vehicle id="104" depart="6.90" type="typedist" departLane="best" departPos="100" >
        <route edges="ym704180166#0 rh-921144236#1 gb1221681667#5 yh343737533#7 gh343737533#10"/>
    </vehicle>
    <vehicle id="105" depart="7.07" type="typedist" departLane="best" departPos="100" >
        <route edges="rh-921144236#1"/>
    </vehicle>
    <vehicle id="106" depart="7.11" type="typedist" departLane="best" departPos="100" >
        <route edges="r888793511#0 rb1221681667#0 ym1075130526#1"/>
    </vehicle>
    <vehicle id="107" depart="7.12" type="typedist" departLane="best" departPos="100" >
        <route edges="rh-921144236#1"/>
    </vehicle>
    <vehicle id="108" depart="7.13" type="typedist" departLane="best" departPos="100" >
        <route edges="r888793511#0 rb1221681667#0 rb1221681667#3"/>
    </vehicle>
    <vehicle id="109" depart="7.18" type="typedist" departLane="best" departPos="100" >
        <route edges="yb1221681662#4 y1221681662#5 gb746290966#1"/>
    </vehicle>
    <vehicle id="110" depart="7.28" type="typedist" departLane="best" departPos="100" >
        <route edges="rb1221681667#3"/>
    </vehicle>
    <vehicle id="111" depart="7.30" type="typedist" departLane="best" departPos="100" >
        <route edges="rm-746291868#1 yh-343737533#9 gb1221681667#7"/>
    </vehicle>
    <vehicle id="112" depart="7.44" type="typedist" departLane="best" departPos="100" >
        <route edges="yh2526319540 rb1221681667#0"/>
    </vehicle>
    <vehicle id="113" depart="7.46" type="typedist" departLane="best" departPos="100" >
        <route edges="rb1221681667#3"/>
    </vehicle>
    <vehicle id="114" depart="7.55" type="typedist" departLane="best" departPos="100" >
        <route edges="r888793511#0 rb1221681667#0"/>
    </vehicle>
    <vehicle id="115" depart="7.58" type="typedist" departLane="best" departPos="100" >
        <route edges="gb1221681667#5 gb1221681667#7"/>
    </vehicle>
    <vehicle id="116" depart="7.77" type="typedist" departLane="best" departPos="100" >
        <route edges="gh1221681662#0.165 yh1221681662#1 yh343737533#7"/>
    </vehicle>
    <vehicle id="117" depart="7.97" type="typedist" departLane="best" departPos="100" >
        <route edges="yh-343737533#13 yh-343737533#9"/>
    </vehicle>
    <vehicle id="118" depart="8.05" type="typedist" departLane="best" departPos="100" >
        <route edges="rh-921144236#1"/>
    </vehicle>
    <vehicle id="119" depart="8.11" type="typedist" departLane="best" departPos="100" >
        <route edges="r888793511#0 rb1221681667#0 rb1221681667#3 gb1221681667#4 gb1221681667#5 gh-343737533#5 ym-1075130526#1"/>
    </vehicle>
    <vehicle id="120" depart="8.22" type="typedist" departLane="best" departPos="100" >
        <route edges="yh2526319540 gb746290966#1"/>
    </vehicle>
    <vehicle id="121" depart="8.30" type="typedist" departLane="best" departPos="100" >
        <route edges="rh-921144236#1"/>
    </vehicle>
    <vehicle id="122" depart="8.40" type="typedist" departLane="best" departPos="100" >
        <route edges="rb1221681667#3"/>
    </vehicle>
    <vehicle id="123" depart="8.40" type="typedist" departLane="best" departPos="100" >
        <route edges="rh-921144236#1"/>
    </vehicle>
    <vehicle id="124" depart="8.42" type="typedist" departLane="best" departPos="100" >
        <route edges="gh1362547081 rb1221681667#0"/>
    </vehicle>
    <vehicle id="125" depart="8.44" type="typedist" departLane="best" departPos="100" >
        <route edges="ym-343737324#2 gm637922365 yh1221681662#1 gb1221681662#3 yb1221681662#4"/>
    </vehicle>
    <vehicle id="126" depart="8.54" type="typedist" departLane="best" departPos="100" >
        <route edges="yh343737533#7 ym704180166#0 rh-921144236#1 gb1221681667#5 gh-343737533#5 gm343737324#0"/>
    </vehicle>
    <vehicle id="127" depart="8.57" type="typedist" departLane="best" departPos="100" >
        <route edges="yh1221681662#1 gb1221681662#3 yb1221681662#4 y1221681662#5"/>
    </vehicle>
    <vehicle id="128" depart="8.58" type="typedist" departLane="best" departPos="100" >
        <route edges="yh343737533#4 yh343737533#7 gh343737533#10 yh-343737533#13 yh-343737533#9"/>
    </vehicle>
    <vehicle id="129" depart="8.64" type="typedist" departLane="best" departPos="100" >
        <route edges="yh1221681662#1"/>
    </vehicle>
    <vehicle id="130" depart="8.64" type="typedist" departLane="best" departPos="100" >
        <route edges="yh2526319540 rb1221681667#0 rb1221681667#3 gb1221681667#4 gb1221681667#5 yh343737533#7"/>
    </vehicle>
    <vehicle id="131" depart="8.74" type="typedist" departLane="best" departPos="100" >
        <route edges="yh2526319540 rb1221681667#0 rb1221681667#3"/>
    </vehicle>
    <vehicle id="132" depart="8.76" type="typedist" departLane="best" departPos="100" >
        <route edges="rb1221681667#3"/>
    </vehicle>
    <vehicle id="133" depart="8.76" type="typedist" departLane="best" departPos="100" >
        <route edges="gm-637922365 ym-343737324#0 yh343737533#4"/>
    </vehicle>
    <vehicle id="134" depart="8.83" type="typedist" departLane="best" departPos="100" >
        <route edges="yh-343737533#13 yh-343737533#9"/>
    </vehicle>
    <vehicle id="135" depart="8.87" type="typedist" departLane="best" departPos="100" >
        <route edges="gh343737533#3 ym-1075130526#1 y1221681662#5 y1362547077#1"/>
    </vehicle>
    <vehicle id="136" depart="8.87" type="typedist" departLane="best" departPos="100" >
        <route edges="gh1221681662#0.165 yh1221681662#1 yh343737533#7 gh343737533#10"/>
    </vehicle>
    <vehicle id="137" depart="8.97" type="typedist" departLane="best" departPos="100" >
        <route edges="gm637922365 yh1221681662#1 yh343737533#7 gh343737533#10 yh-343737533#13 yh-343737533#9"/>
    </vehicle>
    <vehicle id="138" depart="9.00" type="typedist" departLane="best" departPos="100" >
        <route edges="r888793511#0 rb1221681667#0 rb1221681667#3 gb1221681667#4"/>
    </vehicle>
    <vehicle id="139" depart="9.06" type="typedist" departLane="best" departPos="100" >
        <route edges="yh1221681662#1"/>
    </vehicle>
    <vehicle id="140" depart="9.09" type="typedist" departLane="best" departPos="100" >
        <route edges="rh-921144236#1"/>
    </vehicle>
    <vehicle id="141" depart="9.13" type="typedist" departLane="best" departPos="100" >
        <route edges="ym704180166#0 rh-921144236#1 yb1221681662#4 ym1075130526#1"/>
    </vehicle>
    <vehicle id="142" depart="9.15" type="typedist" departLane="best" departPos="100" >
        <route edges="r888793511#0 rb1221681667#0"/>
    </vehicle>
    <vehicle id="143" depart="9.33" type="typedist" departLane="best" departPos="100" >
        <route edges="r888793511#0 y1362547077#1"/>
    </vehicle>
    <vehicle id="144" depart="9.35" type="typedist" departLane="best" departPos="100" >
        <route edges="r888793511#0 rb1221681667#0 rb1221681667#3"/>
    </vehicle>
    <vehicle id="145" depart="9.35" type="typedist" departLane="best" departPos="100" >
        <route edges="yh1221681662#1"/>
    </vehicle>
    <vehicle id="146" depart="9.37" type="typedist" departLane="best" departPos="100" >
        <route edges="rb1221681667#0 rb1221681667#3"/>
    </vehicle>
    <vehicle id="147" depart="9.48" type="typedist" departLane="best" departPos="100" >
        <route edges="yh343737533#4"/>
    </vehicle>
    <vehicle id="148" depart="9.53" type="typedist" departLane="best" departPos="100" >
        <route edges="y1221681662#5 gb746290966#1"/>
    </vehicle>
    <vehicle id="149" depart="9.55" type="typedist" departLane="best" departPos="100" >
        <route edges="r888793511#0 rb1221681667#0 rb1221681667#3"/>
    </vehicle>
    <vehicle id="150" depart="9.67" type="typedist" departLane="best" departPos="100" >
        <route edges="rh-921144236#1"/>
    </vehicle>
    <vehicle id="151" depart="9.93" type="typedist" departLane="best" departPos="100" >
        <route edges="rm-746291868#1 yh-343737533#9 gh-343737533#5 ym-1075130526#1 rb1221681667#3 gb1221681667#4"/>
    </vehicle>
    <vehicle id="152" depart="9.96" type="typedist" departLane="best" departPos="100" >
        <route edges="y-921158505 y1221681662#5 gh-252631954"/>
    </vehicle>
    <vehicle id="153" depart="9.99" type="typedist" departLane="best" departPos="100" >
        <route edges="r888793511#0 rb1221681667#0 rb1221681667#3"/>
    </vehicle>
    <vehicle id="154" depart="10.01" type="typedist" departLane="best" departPos="100" >
        <route edges="rm-746291868#1 gh343737533#10"/>
    </vehicle>
    <vehicle id="155" depart="10.04" type="typedist" departLane="best" departPos="100" >
        <route edges="rb1221681667#3"/>
    </vehicle>
    <vehicle id="156" depart="10.18" type="typedist" departLane="best" departPos="100" >
        <route edges="r888793511#0 y1362547077#1"/>
    </vehicle>
    <vehicle id="157" depart="10.18" type="typedist" departLane="best" departPos="100" >
        <route edges="r888793511#0 rb1221681667#0"/>
    </vehicle>
    <vehicle id="158" depart="10.18" type="typedist" departLane="best" departPos="100" >
        <route edges="rb1221681667#3"/>
    </vehicle>
    <vehicle id="159" depart="10.21" type="typedist" departLane="best" departPos="100" >
        <route edges="rh-921144236#1"/>
    </vehicle>
    <vehicle id="160" depart="10.24" type="typedist" departLane="best" departPos="100" >
        <route edges="gh1221681662#0.165 yh1221681662#1 gb1221681662#3 yb1221681662#4 y1221681662#5 y1362547077#1"/>
    </vehicle>
    <vehicle id="161" depart="10.31" type="typedist" departLane="best" departPos="100" >
        <route edges="gh1362547081 rb1221681667#0 rb1221681667#3"/>
    </vehicle>
    <vehicle id="162" depart="10.38" type="typedist" departLane="best" departPos="100" >
        <route edges="yh343737533#4 yh343737533#7 gh343737533#10 yh-343737533#13 yh-343737533#9"/>
    </vehicle>
    <vehicle id="163" depart="10.52" type="typedist" departLane="best" departPos="100" >
        <route edges="rh-921144236#1"/>
    </vehicle>
    <vehicle id="164" depart="10.55" type="typedist" departLane="best" departPos="100" >
        <route edges="yh2526319540 gb746290966#1"/>
    </vehicle>
    <vehicle id="165" depart="10.58" type="typedist" departLane="best" departPos="100" >
        <route edges="rm-746291868#1 gh343737533#10"/>
    </vehicle>
    <vehicle id="166" depart="10.60" type="typedist" departLane="best" departPos="100" >
        <route edges="r888793511#0 rb1221681667#0 rb1221681667#3"/>
    </vehicle>
    <vehicle id="167" depart="10.62" type="typedist" departLane="best" departPos="100" >
        <route edges="rh-921144236#1"/>
    </vehicle>
    <vehicle id="168" depart="10.82" type="typedist" departLane="best" departPos="100" >
        <route edges="gb1221681667#4 gb1221681667#5 gb1221681667#7"/>
    </vehicle>
    <vehicle id="169" depart="10.86" type="typedist" departLane="best" departPos="100" >
        <route edges="yh1221681662#1"/>
    </vehicle>
    <vehicle id="170" depart="11.06" type="typedist" departLane="best" departPos="100" >
        <route edges="gb1221681667#4"/>
    </vehicle>
    <vehicle id="171" depart="11.09" type="typedist" departLane="best" departPos="100" >
        <route edges="rh-921144236#1"/>
    </vehicle>