<?xml version="1.0" encoding="UTF-8"?>

<!-- generated on 2025-12-02 14:36:19 by Eclipse SUMO netedit Version 1.22.0
<neteditConfiguration xmlns:xsi="http://www.w3.org/2001/XMLSchema-instance" xsi:noNamespaceSchemaLocation="http://sumo.dlr.de/xsd/neteditConfiguration.xsd">

    <input>
        <sumo-net-file value="C:\ITS\TrafficLightControl\Project\trafficlight-algorithm\data\thainguyen\thainguyen.net.xml"/>
    </input>

    <output>
        <output-file value="C:\ITS\TrafficLightControl\Project\trafficlight-algorithm\data\thainguyen\thainguyen.net.xml"/>
        <output.street-names value="true"/>
    </output>

    <processing>
        <geometry.min-radius.fix.railways value="false"/>
        <geometry.max-grade.fix value="false"/>
        <offset.disable-normalization value="true"/>
        <lefthand value="0"/>
    </processing>

    <junctions>
        <no-turnarounds value="true"/>
        <junctions.corner-detail value="5"/>
        <junctions.limit-turn-speed value="5.50"/>
        <rectangular-lane-cut value="0"/>
    </junctions>

    <pedestrian>
        <walkingareas value="0"/>
    </pedestrian>

</neteditConfiguration>
-->

<net version="1.20" junctionCornerDetail="5" limitTurnSpeed="5.50" xmlns:xsi="http://www.w3.org/2001/XMLSchema-instance" xsi:noNamespaceSchemaLocation="http://sumo.dlr.de/xsd/net_file.xsd">

    <location netOffset="-11778737.20,-2460503.95" convBoundary="1199.68,0.00,4690.35,3374.01" origBoundary="105.810197,21.574409,105.852331,21.602854" projParameter="+proj=merc +a=6378137 +b=6378137 +lat_ts=0.0 +lon_0=0.0 +x_0=0.0 +y_0=0 +k=1.0 +units=m +nadgrids=@null +wktext +no_defs"/>

    <type id="highway.primary" priority="12" numLanes="2" speed="27.78" disallow="tram rail_urban rail rail_electric rail_fast ship container cable_car subway aircraft wheelchair scooter drone" oneway="0"/>
    <type id="highway.tertiary" priority="10" numLanes="1" speed="22.22" disallow="tram rail_urban rail rail_electric rail_fast ship container cable_car subway aircraft wheelchair scooter drone" oneway="0"/>
    <type id="highway.trunk" priority="13" numLanes="2" speed="27.78" disallow="pedestrian bicycle tram rail_urban rail rail_electric rail_fast ship container cable_car subway aircraft wheelchair scooter drone" oneway="0"/>

    <edge id=":1893272651_0" function="internal">
        <lane id=":1893272651_0_0" index="0" disallow="pedestrian bicycle tram rail_urban rail rail_electric rail_fast ship container cable_car subway aircraft wheelchair scooter drone" speed="25.00" length="12.90" shape="4093.28,1764.88 4091.98,1768.68 4091.29,1771.55 4090.88,1774.22 4090.42,1777.42"/>
    </edge>
    <edge id=":1893272651_1" function="internal">
        <lane id=":1893272651_1_0" index="0" disallow="pedestrian bicycle tram rail_urban rail rail_electric rail_fast ship container cable_car subway aircraft wheelchair scooter drone" speed="27.78" length="12.93" shape="4093.28,1764.88 4091.61,1768.40 4090.00,1770.57 4088.27,1772.69 4086.23,1776.05"/>
        <lane id=":1893272651_1_1" index="1" disallow="pedestrian bicycle tram rail_urban rail rail_electric rail_fast ship container cable_car subway aircraft wheelchair scooter drone" speed="27.78" length="12.93" shape="4090.29,1763.74 4088.66,1767.17 4087.07,1769.28 4085.37,1771.33 4083.38,1774.60"/>
        <lane id=":1893272651_1_2" index="2" disallow="pedestrian bicycle tram rail_urban rail rail_electric rail_fast ship container cable_car subway aircraft wheelchair scooter drone" speed="27.78" length="12.93" shape="4087.30,1762.61 4085.70,1765.94 4084.15,1767.98 4082.47,1769.97 4080.53,1773.14"/>
    </edge>
    <edge id=":3499252833_0" function="internal">
        <lane id=":3499252833_0_0" index="0" disallow="tram rail_urban rail rail_electric rail_fast ship container cable_car subway aircraft wheelchair scooter drone" speed="5.92" length="9.10" shape="4037.57,2082.43 4035.26,2081.17 4033.34,2081.11 4031.80,2082.27 4030.64,2084.62"/>
    </edge>
    <edge id=":3499252833_1" function="internal">
        <lane id=":3499252833_1_0" index="0" disallow="tram rail_urban rail rail_electric rail_fast ship container cable_car subway aircraft wheelchair scooter drone" speed="22.22" length="23.35" shape="4037.57,2082.43 4032.45,2078.40 4028.53,2074.79 4024.89,2070.87 4020.66,2065.91"/>
        <lane id=":3499252833_1_1" index="1" disallow="tram rail_urban rail rail_electric rail_fast ship container cable_car subway aircraft wheelchair scooter drone" speed="22.22" length="23.35" shape="4039.49,2079.87 4034.45,2075.92 4030.71,2072.48 4027.26,2068.73 4023.10,2063.85"/>
    </edge>
    <edge id=":3499252833_3" function="internal">
        <lane id=":3499252833_3_0" index="0" disallow="tram rail_urban rail rail_electric rail_fast ship container cable_car subway aircraft wheelchair scooter drone" speed="12.41" length="4.68" shape="4039.49,2079.87 4036.28,2076.46"/>
    </edge>
    <edge id=":3499252833_14" function="internal">
        <lane id=":3499252833_14_0" index="0" disallow="tram rail_urban rail rail_electric rail_fast ship container cable_car subway aircraft wheelchair scooter drone" speed="12.41" length="18.92" shape="4036.28,2076.46 4035.98,2076.14 4033.93,2071.28 4033.32,2065.28 4034.16,2058.15"/>
    </edge>
    <edge id=":3499252833_4" function="internal">
        <lane id=":3499252833_4_0" index="0" disallow="tram rail_urban rail rail_electric rail_fast ship container cable_car subway aircraft wheelchair scooter drone" speed="10.91" length="18.08" shape="4037.30,2058.79 4036.92,2063.51 4037.79,2067.75 4039.93,2071.49 4043.32,2074.75"/>
    </edge>
    <edge id=":3499252833_5" function="internal">
        <lane id=":3499252833_5_0" index="0" disallow="tram rail_urban rail rail_electric rail_fast ship container cable_car subway aircraft wheelchair scooter drone" speed="22.22" length="26.68" shape="4037.30,2058.79 4036.06,2064.22 4034.18,2071.76 4032.20,2079.27 4030.64,2084.62"/>
    </edge>
    <edge id=":3499252833_6" function="internal">
        <lane id=":3499252833_6_0" index="0" disallow="tram rail_urban rail rail_electric rail_fast ship container cable_car subway aircraft wheelchair scooter drone" speed="8.15" length="7.28" shape="4037.30,2058.79 4035.07,2065.72"/>
    </edge>
    <edge id=":3499252833_15" function="internal">
        <lane id=":3499252833_15_0" index="0" disallow="tram rail_urban rail rail_electric rail_fast ship container cable_car subway aircraft wheelchair scooter drone" speed="8.15" length="15.03" shape="4035.07,2065.72 4031.95,2068.87 4027.97,2068.25 4023.10,2063.85"/>
    </edge>
    <edge id=":3499252833_7" function="internal">
        <lane id=":3499252833_7_0" index="0" disallow="tram rail_urban rail rail_electric rail_fast ship container cable_car subway aircraft wheelchair scooter drone" speed="5.54" length="9.45" shape="4028.00,2059.72 4030.15,2061.72 4031.89,2062.12 4033.23,2060.93 4034.16,2058.15"/>
    </edge>
    <edge id=":3499252833_8" function="internal">
        <lane id=":3499252833_8_0" index="0" disallow="tram rail_urban rail rail_electric rail_fast ship container cable_car subway aircraft wheelchair scooter drone" speed="22.22" length="21.90" shape="4028.00,2059.72 4031.98,2064.45 4035.07,2067.86 4038.45,2070.95 4043.32,2074.75"/>
        <lane id=":3499252833_8_1" index="1" disallow="tram rail_urban rail rail_electric rail_fast ship container cable_car subway aircraft wheelchair scooter drone" speed="22.22" length="21.90" shape="4025.55,2061.78 4029.62,2066.59 4032.89,2070.17 4036.45,2073.43 4041.40,2077.31"/>
    </edge>
    <edge id=":3499252833_10" function="internal">
        <lane id=":3499252833_10_0" index="0" disallow="tram rail_urban rail rail_electric rail_fast ship container cable_car subway aircraft wheelchair scooter drone" speed="13.53" length="6.60" shape="4025.55,2061.78 4029.26,2067.24"/>
    </edge>
    <edge id=":3499252833_16" function="internal">
        <lane id=":3499252833_16_0" index="0" disallow="tram rail_urban rail rail_electric rail_fast ship container cable_car subway aircraft wheelchair scooter drone" speed="13.53" length="17.89" shape="4029.26,2067.24 4031.35,2072.86 4031.81,2078.66 4030.64,2084.62"/>
    </edge>
    <edge id=":3499252833_11" function="internal">
        <lane id=":3499252833_11_0" index="0" disallow="tram rail_urban rail rail_electric rail_fast ship container cable_car subway aircraft wheelchair scooter drone" speed="12.19" length="19.76" shape="4027.60,2083.63 4028.00,2079.96 4026.98,2075.78 4024.53,2071.10 4020.66,2065.91"/>
    </edge>
    <edge id=":3499252833_12" function="internal">
        <lane id=":3499252833_12_0" index="0" disallow="tram rail_urban rail rail_electric rail_fast ship container cable_car subway aircraft wheelchair scooter drone" speed="22.22" length="26.32" shape="4027.60,2083.63 4029.14,2078.33 4031.09,2070.94 4032.94,2063.53 4034.16,2058.15"/>
    </edge>
    <edge id=":3499252833_13" function="internal">
        <lane id=":3499252833_13_0" index="0" disallow="tram rail_urban rail rail_electric rail_fast ship container cable_car subway aircraft wheelchair scooter drone" speed="8.25" length="4.73" shape="4027.60,2083.63 4029.59,2079.33"/>
    </edge>
    <edge id=":3499252833_17" function="internal">
        <lane id=":3499252833_17_0" index="0" disallow="tram rail_urban rail rail_electric rail_fast ship container cable_car subway aircraft wheelchair scooter drone" speed="8.25" length="14.19" shape="4029.59,2079.33 4030.10,2078.22 4033.24,2075.36 4037.00,2075.06 4041.40,2077.31"/>
    </edge>
    <edge id=":3505430651_0" function="internal">
        <lane id=":3505430651_0_0" index="0" disallow="tram rail_urban rail rail_electric rail_fast ship container cable_car subway aircraft wheelchair scooter drone" speed="8.11" length="13.17" shape="3433.86,1416.26 3431.22,1413.02 3428.52,1411.11 3425.78,1410.53 3422.99,1411.27"/>
    </edge>
    <edge id=":3505430651_1" function="internal">
        <lane id=":3505430651_1_0" index="0" disallow="tram rail_urban rail rail_electric rail_fast ship container cable_car subway aircraft wheelchair scooter drone" speed="22.22" length="18.50" shape="3433.86,1416.26 3423.45,1400.99"/>
        <lane id=":3505430651_1_1" index="1" disallow="tram rail_urban rail rail_electric rail_fast ship container cable_car subway aircraft wheelchair scooter drone" speed="22.22" length="18.50" shape="3436.52,1414.47 3426.08,1399.16"/>
    </edge>
    <edge id=":3505430651_3" function="internal">
        <lane id=":3505430651_3_0" index="0" disallow="tram rail_urban rail rail_electric rail_fast ship container cable_car subway aircraft wheelchair scooter drone" speed="8.18" length="4.27" shape="3436.52,1414.47 3434.74,1410.60"/>
    </edge>
    <edge id=":3505430651_14" function="internal">
        <lane id=":3505430651_14_0" index="0" disallow="tram rail_urban rail rail_electric rail_fast ship container cable_car subway aircraft wheelchair scooter drone" speed="8.18" length="15.43" shape="3434.74,1410.60 3434.30,1409.64 3434.82,1405.83 3438.08,1403.05 3444.07,1401.29"/>
    </edge>
    <edge id=":3505430651_4" function="internal">
        <lane id=":3505430651_4_0" index="0" disallow="tram rail_urban rail rail_electric rail_fast ship container cable_car subway aircraft wheelchair scooter drone" speed="5.78" length="9.15" shape="3444.61,1404.45 3442.04,1405.26 3440.72,1406.60 3440.65,1408.49 3441.83,1410.91"/>
    </edge>
    <edge id=":3505430651_5" function="internal">
        <lane id=":3505430651_5_0" index="0" disallow="tram rail_urban rail rail_electric rail_fast ship container cable_car subway aircraft wheelchair scooter drone" speed="22.22" length="22.70" shape="3444.61,1404.45 3439.78,1405.55 3433.63,1407.33 3427.56,1409.38 3422.99,1411.27"/>
    </edge>
    <edge id=":3505430651_6" function="internal">
        <lane id=":3505430651_6_0" index="0" disallow="tram rail_urban rail rail_electric rail_fast ship container cable_car subway aircraft wheelchair scooter drone" speed="11.54" length="4.90" shape="3444.61,1404.45 3439.72,1404.86"/>
    </edge>
    <edge id=":3505430651_15" function="internal">
        <lane id=":3505430651_15_0" index="0" disallow="tram rail_urban rail rail_electric rail_fast ship container cable_car subway aircraft wheelchair scooter drone" speed="11.54" length="15.44" shape="3439.72,1404.86 3438.46,1404.96 3433.33,1404.25 3429.20,1402.32 3426.08,1399.16"/>
    </edge>
    <edge id=":3505430651_7" function="internal">
        <lane id=":3505430651_7_0" index="0" disallow="tram rail_urban rail rail_electric rail_fast ship container cable_car subway aircraft wheelchair scooter drone" speed="9.91" length="14.82" shape="3431.34,1395.51 3433.98,1398.54 3436.99,1400.51 3440.35,1401.43 3444.07,1401.29"/>
    </edge>
    <edge id=":3505430651_8" function="internal">
        <lane id=":3505430651_8_0" index="0" disallow="tram rail_urban rail rail_electric rail_fast ship container cable_car subway aircraft wheelchair scooter drone" speed="22.22" length="18.60" shape="3431.34,1395.51 3441.83,1410.91"/>
        <lane id=":3505430651_8_1" index="1" disallow="tram rail_urban rail rail_electric rail_fast ship container cable_car subway aircraft wheelchair scooter drone" speed="22.22" length="18.60" shape="3428.71,1397.34 3439.17,1412.69"/>
    </edge>
    <edge id=":3505430651_10" function="internal">
        <lane id=":3505430651_10_0" index="0" disallow="tram rail_urban rail rail_electric rail_fast ship container cable_car subway aircraft wheelchair scooter drone" speed="8.45" length="4.10" shape="3428.71,1397.34 3430.40,1401.08"/>
    </edge>
    <edge id=":3505430651_16" function="internal">
        <lane id=":3505430651_16_0" index="0" disallow="tram rail_urban rail rail_electric rail_fast ship container cable_car subway aircraft wheelchair scooter drone" speed="8.45" length="13.59" shape="3430.40,1401.08 3430.49,1401.29 3430.13,1404.93 3427.63,1408.26 3422.99,1411.27"/>
    </edge>
    <edge id=":3505430651_11" function="internal">
        <lane id=":3505430651_11_0" index="0" disallow="tram rail_urban rail rail_electric rail_fast ship container cable_car subway aircraft wheelchair scooter drone" speed="6.22" length="9.05" shape="3421.56,1408.41 3423.64,1406.96 3424.65,1405.25 3424.59,1403.25 3423.45,1400.99"/>
    </edge>
    <edge id=":3505430651_12" function="internal">
        <lane id=":3505430651_12_0" index="0" disallow="tram rail_urban rail rail_electric rail_fast ship container cable_car subway aircraft wheelchair scooter drone" speed="22.22" length="23.65" shape="3421.56,1408.41 3426.27,1406.47 3432.65,1404.33 3439.10,1402.44 3444.07,1401.29"/>
    </edge>
    <edge id=":3505430651_13" function="internal">
        <lane id=":3505430651_13_0" index="0" disallow="tram rail_urban rail rail_electric rail_fast ship container cable_car subway aircraft wheelchair scooter drone" speed="9.91" length="6.46" shape="3421.56,1408.41 3426.80,1406.61 3427.72,1406.63"/>
    </edge>
    <edge id=":3505430651_17" function="internal">
        <lane id=":3505430651_17_0" index="0" disallow="tram rail_urban rail rail_electric rail_fast ship container cable_car subway aircraft wheelchair scooter drone" speed="9.91" length="13.68" shape="3427.72,1406.63 3431.48,1406.72 3435.61,1408.75 3439.17,1412.69"/>
    </edge>
    <edge id=":3505532311_0" function="internal">
        <lane id=":3505532311_0_0" index="0" disallow="tram rail_urban rail rail_electric rail_fast ship container cable_car subway aircraft wheelchair scooter drone" speed="3.65" length="4.67" shape="4540.09,2449.05 4539.82,2450.46 4539.24,2451.14 4538.35,2451.09 4537.15,2450.29"/>
    </edge>
    <edge id=":6013134585_0" function="internal">
        <lane id=":6013134585_0_0" index="0" disallow="tram rail_urban rail rail_electric rail_fast ship container cable_car subway aircraft wheelchair scooter drone" speed="6.66" length="9.23" shape="3021.94,1806.00 3019.85,1804.50 3017.79,1803.99 3015.77,1804.46 3013.78,1805.91"/>
    </edge>
    <edge id=":6013134585_1" function="internal">
        <lane id=":6013134585_1_0" index="0" disallow="tram rail_urban rail rail_electric rail_fast ship container cable_car subway aircraft wheelchair scooter drone" speed="7.93" length="14.34" shape="3021.94,1806.00 3019.48,1802.91 3018.63,1799.80 3019.41,1796.67 3021.80,1793.53"/>
    </edge>
    <edge id=":6013134585_2" function="internal">
        <lane id=":6013134585_2_0" index="0" disallow="tram rail_urban rail rail_electric rail_fast ship container cable_car subway aircraft wheelchair scooter drone" speed="6.42" length="9.04" shape="3024.05,1795.81 3022.54,1797.79 3022.05,1799.76 3022.58,1801.72 3024.14,1803.66"/>
    </edge>
    <edge id=":6013134585_3" function="internal">
        <lane id=":6013134585_3_0" index="0" disallow="tram rail_urban rail rail_electric rail_fast ship container cable_car subway aircraft wheelchair scooter drone" speed="22.22" length="14.41" shape="3024.05,1795.81 3013.78,1805.91"/>
    </edge>
    <edge id=":6013134585_4" function="internal">
        <lane id=":6013134585_4_0" index="0" disallow="tram rail_urban rail rail_electric rail_fast ship container cable_car subway aircraft wheelchair scooter drone" speed="22.22" length="14.41" shape="3011.53,1803.63 3021.80,1793.53"/>
    </edge>
    <edge id=":6013134585_5" function="internal">
        <lane id=":6013134585_5_0" index="0" disallow="tram rail_urban rail rail_electric rail_fast ship container cable_car subway aircraft wheelchair scooter drone" speed="8.13" length="4.00" shape="3011.53,1803.63 3014.62,1801.37 3014.79,1801.33"/>
    </edge>
    <edge id=":6013134585_6" function="internal">
        <lane id=":6013134585_6_0" index="0" disallow="tram rail_urban rail rail_electric rail_fast ship container cable_car subway aircraft wheelchair scooter drone" speed="8.13" length="10.25" shape="3014.79,1801.33 3017.75,1800.62 3020.93,1801.38 3024.14,1803.66"/>
    </edge>
    <edge id=":6013134586_0" function="internal">
        <lane id=":6013134586_0_0" index="0" disallow="pedestrian bicycle tram rail_urban rail rail_electric rail_fast ship container cable_car subway aircraft wheelchair scooter drone" speed="7.42" length="10.17" shape="3471.23,2242.55 3473.55,2244.44 3475.84,2245.38 3478.11,2245.37 3480.35,2244.41"/>
    </edge>
    <edge id=":6013134586_1" function="internal">
        <lane id=":6013134586_1_0" index="0" disallow="pedestrian bicycle tram rail_urban rail rail_electric rail_fast ship container cable_car subway aircraft wheelchair scooter drone" speed="6.10" length="9.06" shape="3468.11,2252.27 3470.05,2250.59 3470.84,2248.79 3470.47,2246.86 3468.95,2244.79"/>
    </edge>
    <edge id=":6013134586_2" function="internal">
        <lane id=":6013134586_2_0" index="0" disallow="pedestrian bicycle tram rail_urban rail rail_electric rail_fast ship container cable_car subway aircraft wheelchair scooter drone" speed="27.78" length="14.55" shape="3468.11,2252.27 3480.35,2244.41"/>
        <lane id=":6013134586_2_1" index="1" disallow="pedestrian bicycle tram rail_urban rail rail_electric rail_fast ship container cable_car subway aircraft wheelchair scooter drone" speed="27.78" length="14.55" shape="3469.84,2254.96 3482.08,2247.10"/>
        <lane id=":6013134586_2_2" index="2" disallow="pedestrian bicycle tram rail_urban rail rail_electric rail_fast ship container cable_car subway aircraft wheelchair scooter drone" speed="27.78" length="14.55" shape="3471.56,2257.66 3483.82,2249.79"/>
    </edge>
    <edge id=":8552289927_0" function="internal">
        <lane id=":8552289927_0_0" index="0" disallow="tram rail_urban rail rail_electric rail_fast ship container cable_car subway aircraft wheelchair scooter drone" speed="22.22" length="12.31" shape="4082.76,1825.16 4082.46,1828.47 4082.48,1831.31 4082.48,1834.14 4082.08,1837.43"/>
    </edge>
    <edge id=":8552289927_1" function="internal">
        <lane id=":8552289927_1_0" index="0" disallow="tram rail_urban rail rail_electric rail_fast ship container cable_car subway aircraft wheelchair scooter drone" speed="6.63" length="7.48" shape="4079.18,1836.85 4079.28,1834.95 4078.78,1833.30 4077.67,1831.90 4075.95,1830.75"/>
        <lane id=":8552289927_1_1" index="1" disallow="tram rail_urban rail rail_electric rail_fast ship container cable_car subway aircraft wheelchair scooter drone" speed="7.47" length="9.73" shape="4079.18,1836.85 4079.62,1833.55 4079.47,1830.96 4078.73,1829.08 4077.39,1827.90"/>
    </edge>
    <edge id=":8552449949_0" function="internal">
        <lane id=":8552449949_0_0" index="0" disallow="tram rail_urban rail rail_electric rail_fast ship container cable_car subway aircraft wheelchair scooter drone" speed="3.65" length="4.67" shape="4688.92,1293.39 4689.43,1294.74 4689.29,1295.62 4688.50,1296.04 4687.06,1295.99"/>
    </edge>
    <edge id=":J1_0" function="internal">
        <lane id=":J1_0_0" index="0" disallow="pedestrian bicycle tram rail_urban rail rail_electric rail_fast ship container cable_car subway aircraft wheelchair scooter drone" speed="3.65" length="4.67" shape="3487.90,557.33 3486.94,556.25 3486.75,555.38 3487.34,554.70 3488.70,554.23"/>
    </edge>
    <edge id=":cluster_12615320031_12615320032_3505417580_6984126258_0" function="internal">
        <lane id=":cluster_12615320031_12615320032_3505417580_6984126258_0_0" index="0" disallow="pedestrian bicycle tram rail_urban rail rail_electric rail_fast ship container cable_car subway aircraft wheelchair scooter drone" speed="7.50" length="11.73" shape="4311.74,794.40 4309.10,794.59 4306.99,795.90 4305.41,798.33 4304.35,801.88"/>
    </edge>
    <edge id=":cluster_12615320031_12615320032_3505417580_6984126258_1" function="internal">
        <lane id=":cluster_12615320031_12615320032_3505417580_6984126258_1_0" index="0" disallow="pedestrian bicycle tram rail_urban rail rail_electric rail_fast ship container cable_car subway aircraft wheelchair scooter drone" speed="27.78" length="29.79" shape="4311.74,794.40 4304.25,793.78 4296.72,793.45 4289.26,792.82 4281.96,791.31"/>
        <lane id=":cluster_12615320031_12615320032_3505417580_6984126258_1_1" index="1" disallow="pedestrian bicycle tram rail_urban rail rail_electric rail_fast ship container cable_car subway aircraft wheelchair scooter drone" speed="27.78" length="29.79" shape="4312.25,791.24 4304.83,790.64 4297.44,790.34 4290.11,789.74 4282.87,788.24"/>
    </edge>
    <edge id=":cluster_12615320031_12615320032_3505417580_6984126258_3" function="internal">
        <lane id=":cluster_12615320031_12615320032_3505417580_6984126258_3_0" index="0" disallow="pedestrian bicycle tram rail_urban rail rail_electric rail_fast ship container cable_car subway aircraft wheelchair scooter drone" speed="10.34" length="9.68" shape="4312.25,791.24 4305.21,789.37 4303.30,787.92"/>
    </edge>
    <edge id=":cluster_12615320031_12615320032_3505417580_6984126258_18" function="internal">
        <lane id=":cluster_12615320031_12615320032_3505417580_6984126258_18_0" index="0" disallow="pedestrian bicycle tram rail_urban rail rail_electric rail_fast ship container cable_car subway aircraft wheelchair scooter drone" speed="10.34" length="15.79" shape="4303.30,787.92 4300.58,785.86 4298.38,780.72 4298.59,773.94"/>
    </edge>
    <edge id=":cluster_12615320031_12615320032_3505417580_6984126258_4" function="internal">
        <lane id=":cluster_12615320031_12615320032_3505417580_6984126258_4_0" index="0" disallow="pedestrian bicycle tram rail_urban rail rail_electric rail_fast ship container cable_car subway aircraft wheelchair scooter drone" speed="6.44" length="9.02" shape="4309.21,775.93 4309.09,778.41 4309.79,780.31 4311.33,781.63 4313.70,782.38"/>
    </edge>
    <edge id=":cluster_12615320031_12615320032_3505417580_6984126258_5" function="internal">
        <lane id=":cluster_12615320031_12615320032_3505417580_6984126258_5_0" index="0" disallow="pedestrian bicycle tram rail_urban rail rail_electric rail_fast ship container cable_car subway aircraft wheelchair scooter drone" speed="27.78" length="26.38" shape="4309.21,775.93 4304.35,801.88"/>
        <lane id=":cluster_12615320031_12615320032_3505417580_6984126258_5_1" index="1" disallow="pedestrian bicycle tram rail_urban rail rail_electric rail_fast ship container cable_car subway aircraft wheelchair scooter drone" speed="27.78" length="26.38" shape="4306.07,775.34 4301.21,801.27"/>
        <lane id=":cluster_12615320031_12615320032_3505417580_6984126258_5_2" index="2" disallow="pedestrian bicycle tram rail_urban rail rail_electric rail_fast ship container cable_car subway aircraft wheelchair scooter drone" speed="27.78" length="26.38" shape="4302.92,774.75 4298.06,800.66"/>
    </edge>
    <edge id=":cluster_12615320031_12615320032_3505417580_6984126258_8" function="internal">
        <lane id=":cluster_12615320031_12615320032_3505417580_6984126258_8_0" index="0" disallow="pedestrian bicycle tram rail_urban rail rail_electric rail_fast ship container cable_car subway aircraft wheelchair scooter drone" speed="10.71" length="9.64" shape="4302.92,774.75 4300.32,782.49 4299.35,783.60"/>
    </edge>
    <edge id=":cluster_12615320031_12615320032_3505417580_6984126258_19" function="internal">
        <lane id=":cluster_12615320031_12615320032_3505417580_6984126258_19_0" index="0" disallow="pedestrian bicycle tram rail_urban rail rail_electric rail_fast ship container cable_car subway aircraft wheelchair scooter drone" speed="10.71" length="18.55" shape="4299.35,783.60 4296.11,787.32 4290.29,789.24 4282.87,788.24"/>
    </edge>
    <edge id=":cluster_12615320031_12615320032_3505417580_6984126258_9" function="internal">
        <lane id=":cluster_12615320031_12615320032_3505417580_6984126258_9_0" index="0" disallow="pedestrian bicycle tram rail_urban rail rail_electric rail_fast ship container cable_car subway aircraft wheelchair scooter drone" speed="7.57" length="13.60" shape="4284.70,782.11 4287.25,782.14 4289.37,780.60 4291.05,777.47 4292.30,772.76"/>
    </edge>
    <edge id=":cluster_12615320031_12615320032_3505417580_6984126258_10" function="internal">
        <lane id=":cluster_12615320031_12615320032_3505417580_6984126258_10_0" index="0" disallow="pedestrian bicycle tram rail_urban rail rail_electric rail_fast ship container cable_car subway aircraft wheelchair scooter drone" speed="27.78" length="29.32" shape="4284.70,782.11 4291.89,783.13 4299.10,782.71 4306.36,782.06 4313.70,782.38"/>
        <lane id=":cluster_12615320031_12615320032_3505417580_6984126258_10_1" index="1" disallow="pedestrian bicycle tram rail_urban rail rail_electric rail_fast ship container cable_car subway aircraft wheelchair scooter drone" speed="27.78" length="29.32" shape="4283.79,785.17 4291.04,786.21 4298.38,785.82 4305.78,785.20 4313.19,785.53"/>
    </edge>
    <edge id=":cluster_12615320031_12615320032_3505417580_6984126258_12" function="internal">
        <lane id=":cluster_12615320031_12615320032_3505417580_6984126258_12_0" index="0" disallow="pedestrian bicycle tram rail_urban rail rail_electric rail_fast ship container cable_car subway aircraft wheelchair scooter drone" speed="10.49" length="4.03" shape="4283.79,785.17 4287.53,786.66"/>
    </edge>
    <edge id=":cluster_12615320031_12615320032_3505417580_6984126258_20" function="internal">
        <lane id=":cluster_12615320031_12615320032_3505417580_6984126258_20_0" index="0" disallow="pedestrian bicycle tram rail_urban rail rail_electric rail_fast ship container cable_car subway aircraft wheelchair scooter drone" speed="10.49" length="19.23" shape="4287.53,786.66 4290.81,787.97 4295.53,791.48 4297.95,795.71 4298.06,800.66"/>
    </edge>
    <edge id=":cluster_12615320031_12615320032_3505417580_6984126258_13" function="internal">
        <lane id=":cluster_12615320031_12615320032_3505417580_6984126258_13_0" index="0" disallow="pedestrian bicycle tram rail_urban rail rail_electric rail_fast ship container cable_car subway aircraft wheelchair scooter drone" speed="7.09" length="10.11" shape="4287.37,798.58 4287.42,796.12 4286.54,794.09 4284.72,792.48 4281.96,791.31"/>
    </edge>
    <edge id=":cluster_12615320031_12615320032_3505417580_6984126258_14" function="internal">
        <lane id=":cluster_12615320031_12615320032_3505417580_6984126258_14_0" index="0" disallow="pedestrian bicycle tram rail_urban rail rail_electric rail_fast ship container cable_car subway aircraft wheelchair scooter drone" speed="27.78" length="26.31" shape="4287.37,798.58 4292.30,772.76"/>
        <lane id=":cluster_12615320031_12615320032_3505417580_6984126258_14_1" index="1" disallow="pedestrian bicycle tram rail_urban rail rail_electric rail_fast ship container cable_car subway aircraft wheelchair scooter drone" speed="27.78" length="26.31" shape="4290.51,799.19 4295.45,773.35"/>
        <lane id=":cluster_12615320031_12615320032_3505417580_6984126258_14_2" index="2" disallow="pedestrian bicycle tram rail_urban rail rail_electric rail_fast ship container cable_car subway aircraft wheelchair scooter drone" speed="27.78" length="26.31" shape="4293.65,799.80 4298.59,773.94"/>
    </edge>
    <edge id=":cluster_12615320031_12615320032_3505417580_6984126258_17" function="internal">
        <lane id=":cluster_12615320031_12615320032_3505417580_6984126258_17_0" index="0" disallow="pedestrian bicycle tram rail_urban rail rail_electric rail_fast ship container cable_car subway aircraft wheelchair scooter drone" speed="11.06" length="9.37" shape="4293.65,799.80 4296.11,792.57 4297.23,791.25"/>
    </edge>
    <edge id=":cluster_12615320031_12615320032_3505417580_6984126258_21" function="internal">
        <lane id=":cluster_12615320031_12615320032_3505417580_6984126258_21_0" index="0" disallow="pedestrian bicycle tram rail_urban rail rail_electric rail_fast ship container cable_car subway aircraft wheelchair scooter drone" speed="11.06" length="18.03" shape="4297.23,791.25 4300.19,787.78 4305.88,785.43 4313.19,785.53"/>
    </edge>