<?xml version="1.0" encoding="UTF-8"?>

<!-- generated on 2025-06-27 09:52:47.722624 by randomTrips.py v1_22_0+0002-63e50f52594
<configuration>
    <net-file value="C:\ITS\Traffic Light Control\Simulation Lab\CauGiay\caugiay_lang_v2.net.xml"/>
    <output-trip-file value="C:\ITS\Traffic Light Control\Simulation Lab\CauGiay\test.trips.xml"/>
    <route-file value="C:\ITS\Traffic Light Control\Simulation Lab\CauGiay\test-motor.rou.xml"/>
    <prefix value="c"/>
    <vehicle-class value="passenger"/>
    <random-departpos value="True"/>
    <random-arrivalpos value="True"/>
    <length value="True"/>
    <lanes value="True"/>
    <vclass value="motorcycle"/>
    <marouter value="True"/>
    <validate value="True"/>
    <insertion-density value="100.0"/>
</configuration>
-->

<!-- generated on 2025-06-27 09:52:47 by Eclipse SUMO duarouter Version 1.22.0
<duarouterConfiguration xmlns:xsi="http://www.w3.org/2001/XMLSchema-instance" xsi:noNamespaceSchemaLocation="http://sumo.dlr.de/xsd/duarouterConfiguration.xsd">

    <input>
        <net-file value="C:\ITS\Traffic Light Control\Simulation Lab\CauGiay\caugiay_lang_v2.net.xml"/>
        <route-files value="C:\ITS\Traffic Light Control\Simulation Lab\CauGiay\test.trips.xml"/>
    </input>

    <output>
        <output-file value="C:\ITS\Traffic Light Control\Simulation Lab\CauGiay\test.trips.xml.tmp"/>
        <alternatives-output value="NUL"/>
        <write-trips value="true"/>
    </output>

    <time>
        <begin value="0"/>
        <end value="3600"/>
    </time>

    <report>
        <no-warnings value="true"/>
        <ignore-errors value="true"/>
        <no-step-log value="true"/>
    </report>

</duarouterConfiguration>
-->

<routes xmlns:xsi="http://www.w3.org/2001/XMLSchema-instance" xsi:noNamespaceSchemaLocation="http://sumo.dlr.de/xsd/routes_file.xsd">
    <vType id="c_passenger" vClass="passenger"/>
    <trip id="c1" type="c_passenger" depart="0.23" departPos="323.59" arrivalPos="63.14" from="704967126#2" to="703992427#0"/>
    <trip id="c2" type="c_passenger" depart="0.46" departPos="24.06" arrivalPos="185.17" from="399199747#0" to="-295342240#7.13"/>
    <trip id="c4" type="c_passenger" depart="0.91" departPos="398.43" arrivalPos="1.03" from="1284835491" to="701415448#0"/>
    <trip id="c5" type="c_passenger" depart="1.14" departPos="56.84" arrivalPos="42.69" from="709804808#0" to="704933930#0"/>
    <trip id="c6" type="c_passenger" depart="1.37" departPos="27.59" arrivalPos="50.41" from="E12" to="163053438#1"/>
    <trip id="c7" type="c_passenger" depart="1.60" departPos="292.36" arrivalPos="278.02" from="815619171#1" to="703521534"/>
    <trip id="c8" type="c_passenger" depart="1.83" departPos="64.97" arrivalPos="188.27" from="605128435#7" to="E18"/>
    <trip id="c9" type="c_passenger" depart="2.06" departPos="641.74" arrivalPos="35.13" from="788967973#0" to="703523507#1"/>
    <trip id="c10" type="c_passenger" depart="2.28" departPos="165.52" arrivalPos="155.32" from="703992427#0" to="-399203474#5"/>
    <trip id="c11" type="c_passenger" depart="2.51" departPos="80.69" arrivalPos="744.11" from="-570591936#9" to="1361646398"/>
    <trip id="c12" type="c_passenger" depart="2.74" departPos="986.55" arrivalPos="93.97" from="703986439" to="25954131#0"/>
    <trip id="c13" type="c_passenger" depart="2.97" departPos="442.05" arrivalPos="75.33" from="158632061#1" to="E1"/>
    <trip id="c14" type="c_passenger" depart="3.20" departPos="72.27" arrivalPos="230.00" from="116436710#1" to="705529722#1"/>
    <trip id="c15" type="c_passenger" depart="3.43" departPos="75.59" arrivalPos="514.95" from="E26" to="703986437#0"/>
    <trip id="c16" type="c_passenger" depart="3.65" departPos="82.97" arrivalPos="8.05" from="815619171#1" to="709788192#0"/>
    <trip id="c17" type="c_passenger" depart="3.88" departPos="161.87" arrivalPos="2524.08" from="177466778#0" to="1361646398"/>
    <trip id="c19" type="c_passenger" depart="4.34" departPos="6.30" arrivalPos="112.10" from="953158818" to="399205272#0"/>
    <trip id="c20" type="c_passenger" depart="4.57" departPos="93.06" arrivalPos="2403.38" from="701415448#0" to="1361646398"/>
    <trip id="c21" type="c_passenger" depart="4.80" departPos="69.05" arrivalPos="170.37" from="38031007#1.26" to="1325575769#0"/>
    <trip id="c22" type="c_passenger" depart="5.02" departPos="29.42" arrivalPos="336.77" from="-605128434#6" to="-399203474#5"/>
    <trip id="c23" type="c_passenger" depart="5.25" departPos="16.20" arrivalPos="131.70" from="709788186#0" to="38135679#1"/>
    <trip id="c24" type="c_passenger" depart="5.48" departPos="31.50" arrivalPos="203.03" from="E7" to="600083158#0"/>
    <trip id="c25" type="c_passenger" depart="5.71" departPos="210.74" arrivalPos="34.07" from="-157032212#7" to="704967126#3"/>
    <trip id="c26" type="c_passenger" depart="5.94" departPos="76.09" arrivalPos="327.02" from="158632061#1" to="703986437#0"/>
    <trip id="c28" type="c_passenger" depart="6.39" departPos="34.63" arrivalPos="29.58" from="601519291#0" to="1240683345#1"/>
    <trip id="c29" type="c_passenger" depart="6.62" departPos="317.43" arrivalPos="114.96" from="163053438#1" to="703986437#0"/>
    <trip id="c30" type="c_passenger" depart="6.85" departPos="144.15" arrivalPos="63.61" from="705817140#0" to="601519292#6"/>
    <trip id="c31" type="c_passenger" depart="7.08" departPos="1.38" arrivalPos="505.87" from="-1012665672#3" to="163053437#0"/>
    <trip id="c34" type="c_passenger" depart="7.76" departPos="450.82" arrivalPos="3.44" from="-408767266#4" to="709788184#0"/>
    <trip id="c35" type="c_passenger" depart="7.99" departPos="159.61" arrivalPos="34.23" from="492297094#1" to="601873025"/>
    <trip id="c36" type="c_passenger" depart="8.22" departPos="42.88" arrivalPos="242.83" from="399203028#2" to="1292662269#0"/>
    <trip id="c37" type="c_passenger" depart="8.45" departPos="431.51" arrivalPos="443.31" from="1241605215#1" to="158632061#1"/>
    <trip id="c38" type="c_passenger" depart="8.68" departPos="28.82" arrivalPos="52.08" from="400124197#1" to="492297096#1"/>
    <trip id="c39" type="c_passenger" depart="8.91" departPos="43.37" arrivalPos="35.06" from="221158909#7" to="701415448#0"/>
    <trip id="c40" type="c_passenger" depart="9.13" departPos="182.90" arrivalPos="478.36" from="-570591936#9" to="703986436#0"/>
    <trip id="c41" type="c_passenger" depart="9.36" departPos="112.89" arrivalPos="393.69" from="816200777#2" to="-601999040#11"/>
    <trip id="c42" type="c_passenger" depart="9.59" departPos="460.49" arrivalPos="92.85" from="1284835491" to="116432101#0.142"/>
    <trip id="c43" type="c_passenger" depart="9.82" departPos="195.22" arrivalPos="3.94" from="492297094#0" to="711138885#1"/>
    <trip id="c45" type="c_passenger" depart="10.28" departPos="107.53" arrivalPos="71.48" from="704967126#1" to="703992427#0"/>
    <trip id="c46" type="c_passenger" depart="10.50" departPos="94.22" arrivalPos="129.61" from="38031007#6" to="163053438#1"/>
    <trip id="c47" type="c_passenger" depart="10.73" departPos="85.06" arrivalPos="148.77" from="1240344628#1" to="399203474#1"/>
    <trip id="c49" type="c_passenger" depart="11.19" departPos="55.84" arrivalPos="667.89" from="640034004#1" to="-570591936#9"/>
    <trip id="c50" type="c_passenger" depart="11.42" departPos="232.21" arrivalPos="10.02" from="E14" to="974551790#2"/>
    <trip id="c51" type="c_passenger" depart="11.65" departPos="74.17" arrivalPos="3.60" from="506316674" to="1325575738"/>
    <trip id="c52" type="c_passenger" depart="11.87" departPos="17.91" arrivalPos="106.41" from="35972313#1" to="E26"/>
    <trip id="c53" type="c_passenger" depart="12.10" departPos="705.26" arrivalPos="343.53" from="482324745#0" to="38135679#1"/>
    <trip id="c54" type="c_passenger" depart="12.33" departPos="34.98" arrivalPos="107.62" from="640034004#3" to="704967126#2"/>
    <trip id="c57" type="c_passenger" depart="13.02" departPos="13.03" arrivalPos="50.84" from="116432101#0.142" to="E14"/>
    <trip id="c58" type="c_passenger" depart="13.25" departPos="176.92" arrivalPos="87.07" from="703986437#0" to="703992427#0"/>
    <trip id="c59" type="c_passenger" depart="13.47" departPos="208.87" arrivalPos="1658.02" from="885744708#0" to="1361646398"/>
    <trip id="c61" type="c_passenger" depart="13.93" departPos="103.50" arrivalPos="143.55" from="1241605215#1" to="704967126#2"/>
    <trip id="c63" type="c_passenger" depart="14.39" departPos="797.65" arrivalPos="452.77" from="-570591936#9" to="399205272#0"/>
    <trip id="c67" type="c_passenger" depart="15.30" departPos="2177.62" arrivalPos="99.02" from="703986439" to="-1292662269#8"/>
    <trip id="c68" type="c_passenger" depart="15.53" departPos="357.89" arrivalPos="35.18" from="703986439" to="E10"/>
    <trip id="c69" type="c_passenger" depart="15.76" departPos="164.99" arrivalPos="17.19" from="-945783759#2" to="601921051#2"/>
    <trip id="c70" type="c_passenger" depart="15.99" departPos="195.87" arrivalPos="129.94" from="704013518#0" to="1284835491"/>
    <trip id="c71" type="c_passenger" depart="16.21" departPos="199.72" arrivalPos="12.89" from="59150924#1" to="953158808"/>
    <trip id="c72" type="c_passenger" depart="16.44" departPos="1.55" arrivalPos="2064.21" from="399203028#4" to="1361646398"/>
    <trip id="c73" type="c_passenger" depart="16.67" departPos="1975.41" arrivalPos="1476.79" from="703986439" to="1361646398"/>
    <trip id="c74" type="c_passenger" depart="16.90" departPos="40.19" arrivalPos="98.78" from="399203474#1" to="-1379014183#2"/>
    <trip id="c75" type="c_passenger" depart="17.13" departPos="243.45" arrivalPos="112.36" from="953158807#0" to="601522752#0"/>
    <trip id="c76" type="c_passenger" depart="17.36" departPos="35.21" arrivalPos="13.23" from="1121703581#1" to="1121868211#1"/>
    <trip id="c77" type="c_passenger" depart="17.58" departPos="225.46" arrivalPos="34.43" from="709788192#0" to="885892454#2"/>
    <trip id="c79" type="c_passenger" depart="18.04" departPos="53.34" arrivalPos="491.28" from="38135679#1" to="703986436#0"/>
    <trip id="c80" type="c_passenger" depart="18.27" departPos="384.57" arrivalPos="231.35" from="816200777#2" to="E19"/>
    <trip id="c82" type="c_passenger" depart="18.73" departPos="15.98" arrivalPos="26.98" from="709788194#1" to="886446125#1"/>
    <trip id="c83" type="c_passenger" depart="18.95" departPos="222.40" arrivalPos="362.53" from="709788186#0" to="1012665669#0"/>
    <trip id="c84" type="c_passenger" depart="19.18" departPos="226.58" arrivalPos="26.56" from="1284835491" to="809125943#0"/>
    <trip id="c85" type="c_passenger" depart="19.41" departPos="5.94" arrivalPos="516.99" from="709788192#0" to="1361646398"/>
    <trip id="c86" type="c_passenger" depart="19.64" departPos="464.23" arrivalPos="28.23" from="198253958" to="886446125#1"/>
    <trip id="c87" type="c_passenger" depart="19.87" departPos="2614.80" arrivalPos="16.47" from="703986439" to="37380384#3"/>
    <trip id="c88" type="c_passenger" depart="20.10" departPos="120.01" arrivalPos="29.17" from="E1" to="106042137#3.142"/>
    <trip id="c89" type="c_passenger" depart="20.32" departPos="29.33" arrivalPos="1163.28" from="E13" to="1361646398"/>
    <trip id="c90" type="c_passenger" depart="20.55" departPos="10.91" arrivalPos="348.86" from="704959985" to="158632061#1"/>
    <trip id="c91" type="c_passenger" depart="20.78" departPos="10.52" arrivalPos="169.23" from="37380136" to="616823841#1"/>
    <trip id="c93" type="c_passenger" depart="21.24" departPos="220.77" arrivalPos="50.82" from="705529722#1" to="703992427#0"/>
    <trip id="c94" type="c_passenger" depart="21.47" departPos="836.60" arrivalPos="442.03" from="703986439" to="163053438#1"/>
    <trip id="c95" type="c_passenger" depart="21.69" departPos="95.52" arrivalPos="50.60" from="704013518#0" to="157393077#0"/>
    <trip id="c96" type="c_passenger" depart="21.92" departPos="13.92" arrivalPos="129.89" from="38031007#6" to="157032212#0"/>
    <trip id="c97" type="c_passenger" depart="22.15" departPos="111.65" arrivalPos="447.04" from="E1" to="703992427#0"/>
    <trip id="c100" type="c_passenger" depart="22.84" departPos="112.72" arrivalPos="55.30" from="400124197#1" to="1325575738"/>
    <trip id="c101" type="c_passenger" depart="23.06" departPos="21.27" arrivalPos="103.93" from="709788192#0" to="1240344628#1"/>
    <trip id="c102" type="c_passenger" depart="23.29" departPos="2181.13" arrivalPos="391.53" from="703986439" to="163053438#1"/>
    <trip id="c103" type="c_passenger" depart="23.52" departPos="530.69" arrivalPos="65.38" from="703986439" to="1361646398"/>
    <trip id="c104" type="c_passenger" depart="23.75" departPos="23.63" arrivalPos="42.70" from="136571559#0" to="408767266#0"/>
    <trip id="c105" type="c_passenger" depart="23.98" departPos="70.74" arrivalPos="367.90" from="38135679#5" to="703986436#0"/>
    <trip id="c106" type="c_passenger" depart="24.21" departPos="154.74" arrivalPos="14.84" from="600083158#0" to="1361646398"/>
    <trip id="c107" type="c_passenger" depart="24.43" departPos="11.69" arrivalPos="106.63" from="705564896#0" to="709788192#0"/>
    <trip id="c108" type="c_passenger" depart="24.66" departPos="81.94" arrivalPos="13.59" from="1165357407#4" to="E13"/>
    <trip id="c110" type="c_passenger" depart="25.12" departPos="1586.90" arrivalPos="128.94" from="703986439" to="E26"/>
    <trip id="c111" type="c_passenger" depart="25.35" departPos="23.18" arrivalPos="192.32" from="885892454#1" to="703521534"/>
    <trip id="c113" type="c_passenger" depart="25.81" departPos="59.77" arrivalPos="1706.96" from="492297094#0" to="1361646398"/>
    <trip id="c115" type="c_passenger" depart="26.26" departPos="217.07" arrivalPos="35.68" from="-570591936#9" to="1379014183#1"/>
    <trip id="c116" type="c_passenger" depart="26.49" departPos="78.05" arrivalPos="69.79" from="616545698#1.155" to="116432101#0.343"/>
    <trip id="c117" type="c_passenger" depart="26.72" departPos="296.04" arrivalPos="129.27" from="703992427#0" to="-601578052#9"/>
    <trip id="c118" type="c_passenger" depart="26.95" departPos="152.86" arrivalPos="445.39" from="38135679#5" to="1284835491"/>
    <trip id="c119" type="c_passenger" depart="27.18" departPos="326.41" arrivalPos="202.62" from="703521534" to="704933929#1"/>
    <trip id="c120" type="c_passenger" depart="27.40" departPos="64.93" arrivalPos="234.78" from="35972313#2" to="-1287978626#1"/>
    <trip id="c121" type="c_passenger" depart="27.63" departPos="151.78" arrivalPos="222.34" from="815619171#1" to="E12"/>
    <trip id="c122" type="c_passenger" depart="27.86" departPos="52.66" arrivalPos="83.60" from="616823841#1" to="703521534"/>
    <trip id="c123" type="c_passenger" depart="28.09" departPos="80.07" arrivalPos="248.85" from="400124197#1" to="-295342240#7.13"/>
    <trip id="c124" type="c_passenger" depart="28.32" departPos="161.30" arrivalPos="23.83" from="38135679#1" to="1240344626"/>
    <trip id="c125" type="c_passenger" depart="28.55" departPos="1050.08" arrivalPos="142.35" from="703986439" to="-25953686#18"/>
    <trip id="c127" type="c_passenger" depart="29.00" departPos="69.94" arrivalPos="240.57" from="-399199747#3" to="295514386#0"/>
    <trip id="c128" type="c_passenger" depart="29.23" departPos="139.22" arrivalPos="612.32" from="705817140#0" to="295514386#0"/>
    <trip id="c129" type="c_passenger" depart="29.46" departPos="5.99" arrivalPos="16.12" from="157032212#0" to="-885744708#1"/>
    <trip id="c131" type="c_passenger" depart="29.92" departPos="2530.75" arrivalPos="41.62" from="703986439" to="707852065#1"/>
    <trip id="c132" type="c_passenger" depart="30.14" departPos="85.89" arrivalPos="105.90" from="-158632061#18" to="1165357407#4"/>
    <trip id="c133" type="c_passenger" depart="30.37" departPos="7.09" arrivalPos="256.42" from="701426448#0" to="1325575769#0"/>
    <trip id="c134" type="c_passenger" depart="30.60" departPos="330.81" arrivalPos="43.64" from="116436710#1" to="703521534"/>
    <trip id="c135" type="c_passenger" depart="30.83" departPos="26.38" arrivalPos="8.35" from="711138888#1" to="E16"/>
    <trip id="c136" type="c_passenger" depart="31.06" departPos="735.11" arrivalPos="288.09" from="177466778#0" to="703992427#0"/>
    <trip id="c137" type="c_passenger" depart="31.29" departPos="213.28" arrivalPos="74.08" from="704013518#0" to="-711135381#1"/>
    <trip id="c138" type="c_passenger" depart="31.51" departPos="295.50" arrivalPos="150.59" from="-885744708#0" to="709788192#0"/>
    <trip id="c139" type="c_passenger" depart="31.74" departPos="373.78" arrivalPos="12.63" from="-E0" to="E25"/>
    <trip id="c140" type="c_passenger" depart="31.97" departPos="270.23" arrivalPos="4.92" from="399203474#1" to="295342240#0"/>
    <trip id="c141" type="c_passenger" depart="32.20" departPos="38.23" arrivalPos="348.02" from="815619171#1" to="815619171#1"/>
    <trip id="c142" type="c_passenger" depart="32.43" departPos="1885.01" arrivalPos="157.74" from="703986439" to="815619171#1"/>
    <trip id="c143" type="c_passenger" depart="32.66" departPos="97.96" arrivalPos="262.75" from="704967126#2" to="E16"/>
    <trip id="c144" type="c_passenger" depart="32.88" departPos="74.26" arrivalPos="75.91" from="615426395#2" to="408822902#2"/>
    <trip id="c145" type="c_passenger" depart="33.11" departPos="566.67" arrivalPos="52.73" from="158632061#1" to="883126626"/>
    <trip id="c147" type="c_passenger" depart="33.57" departPos="57.48" arrivalPos="66.63" from="35972313#1" to="-295342240#7.13"/>
    <trip id="c148" type="c_passenger" depart="33.80" departPos="167.52" arrivalPos="146.41" from="1284835491" to="776703518#1"/>
    <trip id="c149" type="c_passenger" depart="34.03" departPos="7.37" arrivalPos="2537.87" from="703992427#0" to="1361646398"/>
    <trip id="c151" type="c_passenger" depart="34.48" departPos="356.48" arrivalPos="596.43" from="703992427#0" to="703986437#0"/>
    <trip id="c152" type="c_passenger" depart="34.71" departPos="83.20" arrivalPos="45.64" from="-615426398#3" to="1329311807#1"/>
    <trip id="c153" type="c_passenger" depart="34.94" departPos="202.28" arrivalPos="249.50" from="703521534" to="408767266#0"/>
    <trip id="c154" type="c_passenger" depart="35.17" departPos="426.03" arrivalPos="141.22" from="705529722#1" to="163053438#1"/>
    <trip id="c155" type="c_passenger" depart="35.40" departPos="59.50" arrivalPos="0.96" from="157032212#0" to="106042137#5"/>
    <trip id="c156" type="c_passenger" depart="35.62" departPos="31.78" arrivalPos="55.18" from="605128435#7" to="709788186#0"/>
    <trip id="c158" type="c_passenger" depart="36.08" departPos="105.69" arrivalPos="108.64" from="163053437#0" to="-E0"/>
    <trip id="c160" type="c_passenger" depart="36.54" departPos="226.73" arrivalPos="2.52" from="E16" to="601921053#0"/>
    <trip id="c161" type="c_passenger" depart="36.77" departPos="413.95" arrivalPos="422.91" from="816200777#2" to="482324745#0"/>
    <trip id="c162" type="c_passenger" depart="36.99" departPos="135.82" arrivalPos="2.38" from="482324745#0" to="399199453#1"/>
    <trip id="c163" type="c_passenger" depart="37.22" departPos="101.67" arrivalPos="69.05" from="E1" to="408800725#0"/>
    <trip id="c164" type="c_passenger" depart="37.45" departPos="42.83" arrivalPos="78.83" from="-570591936#9" to="703986436#0"/>
    <trip id="c165" type="c_passenger" depart="37.68" departPos="158.22" arrivalPos="28.33" from="701415448#0" to="157393078#0"/>
    <trip id="c166" type="c_passenger" depart="37.91" departPos="79.72" arrivalPos="85.98" from="707457431#0" to="703521534"/>
    <trip id="c167" type="c_passenger" depart="38.14" departPos="260.99" arrivalPos="459.41" from="601999040#2" to="399203474#1"/>
    <trip id="c168" type="c_passenger" depart="38.37" departPos="84.29" arrivalPos="145.78" from="E26" to="157393078#0"/>
    <trip id="c169" type="c_passenger" depart="38.59" departPos="13.18" arrivalPos="27.09" from="704967126#3" to="E11"/>
    <trip id="c170" type="c_passenger" depart="38.82" departPos="463.22" arrivalPos="8.60" from="703986439" to="1213248858#2"/>
    <trip id="c171" type="c_passenger" depart="39.05" departPos="191.73" arrivalPos="155.56" from="-1226381524#0" to="399203474#1"/>
    <trip id="c172" type="c_passenger" depart="39.28" departPos="233.86" arrivalPos="35.83" from="1292662269#0" to="704959984"/>
    <trip id="c173" type="c_passenger" depart="39.51" departPos="204.39" arrivalPos="176.53" from="703992425#0" to="974551789#2"/>
    <trip id="c174" type="c_passenger" depart="39.74" departPos="1133.01" arrivalPos="67.35" from="703986439" to="E1"/>
    <trip id="c175" type="c_passenger" depart="39.96" departPos="2203.01" arrivalPos="9.97" from="703986439" to="953158808"/>
    <trip id="c176" type="c_passenger" depart="40.19" departPos="331.26" arrivalPos="75.32" from="116436710#1" to="157394825#0"/>
    <trip id="c177" type="c_passenger" depart="40.42" departPos="358.97" arrivalPos="101.84" from="163053438#1" to="1121703580"/>
    <trip id="c178" type="c_passenger" depart="40.65" departPos="61.07" arrivalPos="59.26" from="E1" to="482324745#0"/>
    <trip id="c179" type="c_passenger" depart="40.88" departPos="118.11" arrivalPos="91.09" from="-295342240#7.13" to="38135679#5"/>
    <trip id="c180" type="c_passenger" depart="41.11" departPos="224.32" arrivalPos="157.38" from="-605128434#6" to="E14"/>
    <trip id="c181" type="c_passenger" depart="41.33" departPos="204.92" arrivalPos="40.69" from="E10" to="E8"/>
    <trip id="c182" type="c_passenger" depart="41.56" departPos="43.16" arrivalPos="136.00" from="-396942969#1" to="707852065#1"/>
    <trip id="c183" type="c_passenger" depart="41.79" departPos="109.95" arrivalPos="275.25" from="954882992" to="1241605215#1"/>
    <trip id="c184" type="c_passenger" depart="42.02" departPos="82.14" arrivalPos="62.92" from="59150924#1" to="-954882992"/>
    <trip id="c185" type="c_passenger" depart="42.25" departPos="878.94" arrivalPos="243.70" from="703986439" to="885744708#0"/>
    <trip id="c186" type="c_passenger" depart="42.48" departPos="424.07" arrivalPos="167.68" from="163053438#1" to="E10"/>
    <trip id="c187" type="c_passenger" depart="42.70" departPos="238.16" arrivalPos="661.80" from="482324745#0" to="158632061#1"/>
    <trip id="c189" type="c_passenger" depart="43.16" departPos="63.31" arrivalPos="25.04" from="616545698#1.155" to="38031007#1.26"/>
    <trip id="c190" type="c_passenger" depart="43.39" departPos="96.57" arrivalPos="107.55" from="705790143#0" to="703986436#0"/>
    <trip id="c191" type="c_passenger" depart="43.62" departPos="24.48" arrivalPos="19.52" from="640034004#1" to="974551790#3"/>
    <trip id="c192" type="c_passenger" depart="43.85" departPos="290.79" arrivalPos="81.61" from="-E0" to="E18"/>
    <trip id="c193" type="c_passenger" depart="44.07" departPos="89.80" arrivalPos="1.59" from="116432101#0.142" to="601873026"/>
    <trip id="c194" type="c_passenger" depart="44.30" departPos="16.52" arrivalPos="3.70" from="E3" to="962493746"/>
    <trip id="c195" type="c_passenger" depart="44.53" departPos="533.68" arrivalPos="374.89" from="788967973#0" to="482324745#0"/>
    <trip id="c197" type="c_passenger" depart="44.99" departPos="50.13" arrivalPos="374.08" from="640034004#2" to="295514386#0"/>
    <trip id="c199" type="c_passenger" depart="45.44" departPos="184.73" arrivalPos="101.48" from="38135679#5" to="E1"/>
    <trip id="c201" type="c_passenger" depart="45.90" departPos="127.13" arrivalPos="152.65" from="59150924#1" to="116436710#1"/>
    <trip id="c202" type="c_passenger" depart="46.13" departPos="102.89" arrivalPos="62.07" from="640034004#3" to="601522752#0"/>
    <trip id="c203" type="c_passenger" depart="46.36" departPos="115.29" arrivalPos="61.81" from="1240344628#1" to="704933929#1"/>
    <trip id="c204" type="c_passenger" depart="46.59" departPos="155.46" arrivalPos="378.52" from="707852065#1" to="-399203474#5"/>
    <trip id="c205" type="c_passenger" depart="46.81" departPos="134.63" arrivalPos="604.09" from="711138886" to="295514386#0"/>
    <trip id="c206" type="c_passenger" depart="47.04" departPos="12.63" arrivalPos="370.04" from="E18" to="482324745#0"/>
    <trip id="c207" type="c_passenger" depart="47.27" departPos="178.52" arrivalPos="54.58" from="703521535#0.17" to="948123041#0"/>
    <trip id="c208" type="c_passenger" depart="47.50" departPos="425.89" arrivalPos="186.35" from="601999040#2" to="399205272#0"/>
    <trip id="c209" type="c_passenger" depart="47.73" departPos="1251.21" arrivalPos="135.88" from="703986439" to="1201414576"/>
    <trip id="c211" type="c_passenger" depart="48.18" departPos="137.65" arrivalPos="10.21" from="815619171#1" to="885892454#1"/>
    <trip id="c213" type="c_passenger" depart="48.64" departPos="542.11" arrivalPos="526.97" from="-408767266#4" to="703986436#0"/>
    <trip id="c214" type="c_passenger" depart="48.87" departPos="59.67" arrivalPos="58.10" from="705529722#1" to="396942969#0"/>
    <trip id="c215" type="c_passenger" depart="49.10" departPos="112.07" arrivalPos="298.64" from="875229049#0" to="399199747#3"/>
    <trip id="c216" type="c_passenger" depart="49.33" departPos="114.15" arrivalPos="91.49" from="-397016905#3" to="711138888#1"/>
    <trip id="c217" type="c_passenger" depart="49.55" departPos="82.37" arrivalPos="186.93" from="1121703580" to="600083158#0"/>
    <trip id="c218" type="c_passenger" depart="49.78" departPos="385.17" arrivalPos="215.37" from="116436710#1" to="-885744708#0"/>
    <trip id="c219" type="c_passenger" depart="50.01" departPos="47.85" arrivalPos="14.53" from="1325575769#0" to="962493746"/>
    <trip id="c220" type="c_passenger" depart="50.24" departPos="2.90" arrivalPos="2153.92" from="157032212#0" to="1361646398"/>
    <trip id="c221" type="c_passenger" depart="50.47" departPos="4.81" arrivalPos="320.82" from="951694405#0" to="703992427#0"/>
    <trip id="c222" type="c_passenger" depart="50.70" departPos="286.59" arrivalPos="74.25" from="25954131#0" to="701415446"/>
    <trip id="c223" type="c_passenger" depart="50.93" departPos="61.54" arrivalPos="234.07" from="157032212#0" to="883126626"/>
    <trip id="c224" type="c_passenger" depart="51.15" departPos="344.39" arrivalPos="1538.71" from="492297094#1" to="1361646398"/>
    <trip id="c225" type="c_passenger" depart="51.38" departPos="7.39" arrivalPos="203.35" from="E30" to="157032212#0"/>
    <trip id="c226" type="c_passenger" depart="51.61" departPos="373.40" arrivalPos="48.00" from="163053437#0" to="605128435#4"/>
    <trip id="c227" type="c_passenger" depart="51.84" departPos="164.13" arrivalPos="344.47" from="-399199747#3" to="703521534"/>
    <trip id="c228" type="c_passenger" depart="52.07" departPos="10.06" arrivalPos="58.59" from="163053437#12" to="776703518#1"/>
    <trip id="c229" type="c_passenger" depart="52.30" departPos="1806.27" arrivalPos="380.89" from="703986439" to="703986436#0"/>
    <trip id="c230" type="c_passenger" depart="52.52" departPos="1674.31" arrivalPos="428.50" from="703986439" to="816200777#2"/>
    <trip id="c231" type="c_passenger" depart="52.75" departPos="1174.81" arrivalPos="76.69" from="703986439" to="157394825#0"/>
    <trip id="c232" type="c_passenger" depart="52.98" departPos="107.04" arrivalPos="452.84" from="704967126#2" to="-945783759#2"/>
    <trip id="c233" type="c_passenger" depart="53.21" departPos="85.33" arrivalPos="157.96" from="1165357407#4" to="116432101#0.142"/>
    <trip id="c235" type="c_passenger" depart="53.67" departPos="134.13" arrivalPos="77.52" from="776703518#1" to="408822902#2"/>
    <trip id="c237" type="c_passenger" depart="54.12" departPos="198.15" arrivalPos="160.59" from="E14" to="885892454#2"/>
    <trip id="c238" type="c_passenger" depart="54.35" departPos="100.08" arrivalPos="588.84" from="E14" to="788967973#0"/>
    <trip id="c239" type="c_passenger" depart="54.58" departPos="140.59" arrivalPos="101.40" from="-157032212#7" to="601519291#3"/>
    <trip id="c240" type="c_passenger" depart="54.81" departPos="2191.78" arrivalPos="37.05" from="703986439" to="687373730"/>
    <trip id="c241" type="c_passenger" depart="55.04" departPos="15.16" arrivalPos="2367.01" from="-945783759#2" to="1361646398"/>
    <trip id="c242" type="c_passenger" depart="55.26" departPos="35.24" arrivalPos="4.96" from="701415448#0" to="965882632"/>
    <trip id="c243" type="c_passenger" depart="55.49" departPos="50.26" arrivalPos="9.72" from="776703518#1" to="953158818"/>
    <trip id="c244" type="c_passenger" depart="55.72" departPos="49.72" arrivalPos="63.23" from="106042137#3.142" to="E11"/>
    <trip id="c246" type="c_passenger" depart="56.18" departPos="2521.06" arrivalPos="10.78" from="703986439" to="707457430#0"/>
    <trip id="c247" type="c_passenger" depart="56.41" departPos="251.48" arrivalPos="13.88" from="705529722#1" to="1201414576"/>
    <trip id="c248" type="c_passenger" depart="56.63" departPos="224.61" arrivalPos="12.06" from="59150924#1" to="38031007#1.100"/>
    <trip id="c249" type="c_passenger" depart="56.86" departPos="251.20" arrivalPos="282.79" from="343741883#0" to="399199747#3"/>
    <trip id="c250" type="c_passenger" depart="57.09" departPos="64.30" arrivalPos="710.20" from="-711135381#1" to="703992427#0"/>
    <trip id="c251" type="c_passenger" depart="57.32" departPos="139.70" arrivalPos="4.91" from="295514386#0" to="37380383"/>
    <trip id="c252" type="c_passenger" depart="57.55" departPos="240.07" arrivalPos="342.73" from="815619171#1" to="399203474#1"/>
    <trip id="c253" type="c_passenger" depart="57.78" departPos="591.81" arrivalPos="117.11" from="703986437#0" to="-198253958"/>
    <trip id="c254" type="c_passenger" depart="58.00" departPos="28.97" arrivalPos="48.11" from="1012665669#0" to="605128435#12"/>
    <trip id="c255" type="c_passenger" depart="58.23" departPos="377.11" arrivalPos="109.86" from="1241605215#1" to="1325575769#0"/>
    <trip id="c256" type="c_passenger" depart="58.46" departPos="0.41" arrivalPos="250.40" from="1121703580" to="953158807#0"/>