<?xml version="1.0" encoding="UTF-8"?>

<!-- generated on 2025-07-15 08:47:27 by Eclipse SUMO netedit Version 1.22.0
<neteditConfiguration xmlns:xsi="http://www.w3.org/2001/XMLSchema-instance" xsi:noNamespaceSchemaLocation="http://sumo.dlr.de/xsd/neteditConfiguration.xsd">

    <input>
        <sumo-net-file value="C:\ITS\Traffic Light Control\Maxpressure\sumo\test.net.xml"/>
    </input>

    <output>
        <output-file value="C:\ITS\Traffic Light Control\Maxpressure\sumo\test.net.xml"/>
    </output>

    <processing>
        <geometry.min-radius.fix.railways value="false"/>
        <geometry.avoid-overlap value="0"/>
        <geometry.max-grade.fix value="false"/>
        <offset.disable-normalization value="true"/>
        <lefthand value="0"/>
    </processing>

    <junctions>
        <no-turnarounds value="true"/>
        <junctions.corner-detail value="5"/>
        <junctions.limit-turn-speed value="5.50"/>
        <rectangular-lane-cut value="0"/>
    </junctions>

    <pedestrian>
        <walkingareas value="0"/>
    </pedestrian>

</neteditConfiguration>
-->

<net version="1.20" junctionCornerDetail="5" limitTurnSpeed="5.50" avoidOverlap="0" xmlns:xsi="http://www.w3.org/2001/XMLSchema-instance" xsi:noNamespaceSchemaLocation="http://sumo.dlr.de/xsd/net_file.xsd">

    <location netOffset="-581155.35,-2324860.75" convBoundary="498.84,-370.87,1200.60,1785.01" origBoundary="105.781051,20.960406,105.813160,21.045988" projParameter="+proj=utm +zone=48 +ellps=WGS84 +datum=WGS84 +units=m +no_defs"/>

    <type id="highway.residential" priority="3" numLanes="1" speed="13.89" disallow="tram rail_urban rail rail_electric rail_fast ship container cable_car subway aircraft wheelchair scooter drone" oneway="0"/>
    <type id="highway.secondary" priority="11" numLanes="1" speed="27.78" disallow="tram rail_urban rail rail_electric rail_fast ship container cable_car subway aircraft wheelchair scooter drone" oneway="0"/>
    <type id="highway.secondary_link" priority="6" numLanes="1" speed="22.22" disallow="tram rail_urban rail rail_electric rail_fast ship container cable_car subway aircraft wheelchair scooter drone" oneway="0"/>

    <edge id=":10202001781_0" function="internal">
        <lane id=":10202001781_0_0" index="0" disallow="tram rail_urban rail rail_electric rail_fast ship container cable_car subway aircraft wheelchair scooter drone" speed="27.78" length="0.30" width="3.75" shape="537.99,-269.97 538.32,-269.72"/>
        <lane id=":10202001781_0_1" index="1" disallow="tram rail_urban rail rail_electric rail_fast ship container cable_car subway aircraft wheelchair scooter drone" speed="27.78" length="0.30" width="3.75" shape="535.74,-266.97 536.01,-266.76"/>
        <lane id=":10202001781_0_2" index="2" disallow="tram rail_urban rail rail_electric rail_fast ship container cable_car subway aircraft wheelchair scooter drone" speed="27.78" length="0.30" width="3.75" shape="533.49,-263.97 533.70,-263.81"/>
        <lane id=":10202001781_0_3" index="3" disallow="tram rail_urban rail rail_electric rail_fast ship container cable_car subway aircraft wheelchair scooter drone" speed="27.78" length="0.30" width="3.75" shape="531.24,-260.97 531.39,-260.86"/>
    </edge>
    <edge id=":1219243660_0" function="internal">
        <lane id=":1219243660_0_0" index="0" disallow="tram rail_urban rail rail_electric rail_fast ship container cable_car subway aircraft wheelchair scooter drone" speed="8.87" length="17.28" shape="1200.53,242.90 1202.06,245.29 1201.88,248.64 1199.98,252.95 1196.37,258.21"/>
    </edge>
    <edge id=":1219243660_1" function="internal">
        <lane id=":1219243660_1_0" index="0" disallow="tram rail_urban rail rail_electric rail_fast ship container cable_car subway aircraft wheelchair scooter drone" speed="3.65" length="4.67" shape="1193.85,256.25 1195.21,255.79 1196.09,255.97 1196.48,256.78 1196.37,258.21"/>
    </edge>
    <edge id=":1220930867_0" function="internal">
        <lane id=":1220930867_0_0" index="0" disallow="tram rail_urban rail rail_electric rail_fast ship container cable_car subway aircraft wheelchair scooter drone" speed="8.78" length="17.63" width="3.75" shape="1195.53,259.30 1191.26,264.13 1187.47,266.99 1184.17,267.87 1181.36,266.77"/>
        <lane id=":1220930867_0_1" index="1" disallow="tram rail_urban rail rail_electric rail_fast ship container cable_car subway aircraft wheelchair scooter drone" speed="7.94" length="14.22" width="3.75" shape="1195.53,259.30 1192.27,262.84 1189.21,264.78 1186.37,265.12 1183.73,263.86"/>
        <lane id=":1220930867_0_2" index="2" disallow="tram rail_urban rail rail_electric rail_fast ship container cable_car subway aircraft wheelchair scooter drone" speed="7.05" length="10.96" width="3.75" shape="1195.53,259.30 1193.28,261.55 1190.95,262.57 1188.56,262.37 1186.10,260.95"/>
        <lane id=":1220930867_0_3" index="3" disallow="tram rail_urban rail rail_electric rail_fast ship container cable_car subway aircraft wheelchair scooter drone" speed="6.12" length="8.02" width="3.75" shape="1195.53,259.30 1194.29,260.26 1192.70,260.36 1190.76,259.63 1188.47,258.05"/>
    </edge>
    <edge id=":1220930867_4" function="internal">
        <lane id=":1220930867_4_0" index="0" disallow="tram rail_urban rail rail_electric rail_fast ship container cable_car subway aircraft wheelchair scooter drone" speed="3.65" length="4.67" shape="1195.53,259.30 1194.16,259.76 1193.29,259.58 1192.90,258.78 1193.00,257.34"/>
    </edge>
    <edge id=":1881927757_0" function="internal">
        <lane id=":1881927757_0_0" index="0" disallow="tram rail_urban rail rail_electric rail_fast ship container cable_car subway aircraft wheelchair scooter drone" speed="11.87" length="14.10" width="7.00" shape="911.16,12.56 914.30,14.48 917.57,15.66 920.96,16.08 924.47,15.76"/>
    </edge>
    <edge id=":1881927757_1" function="internal">
        <lane id=":1881927757_1_0" index="0" disallow="tram rail_urban rail rail_electric rail_fast ship container cable_car subway aircraft wheelchair scooter drone" speed="27.78" length="15.86" width="3.75" shape="911.16,12.56 923.85,22.17"/>
        <lane id=":1881927757_1_1" index="1" disallow="tram rail_urban rail rail_electric rail_fast ship container cable_car subway aircraft wheelchair scooter drone" speed="27.78" length="15.86" width="3.75" shape="908.92,15.57 921.58,25.15"/>
        <lane id=":1881927757_1_2" index="2" disallow="tram rail_urban rail rail_electric rail_fast ship container cable_car subway aircraft wheelchair scooter drone" speed="27.78" length="15.86" width="3.75" shape="906.68,18.58 919.31,28.14"/>
        <lane id=":1881927757_1_3" index="3" disallow="tram rail_urban rail rail_electric rail_fast ship container cable_car subway aircraft wheelchair scooter drone" speed="27.78" length="15.86" width="3.75" shape="904.43,21.58 917.03,31.12"/>
    </edge>
    <edge id=":1881927757_5" function="internal">
        <lane id=":1881927757_5_0" index="0" disallow="tram rail_urban rail rail_electric rail_fast ship container cable_car subway aircraft wheelchair scooter drone" speed="6.36" length="8.24" shape="904.43,21.58 906.66,23.49 907.97,25.24 908.39,26.81 907.90,28.23"/>
    </edge>
    <edge id=":1881927757_6" function="internal">
        <lane id=":1881927757_6_0" index="0" disallow="tram rail_urban rail rail_electric rail_fast ship container cable_car subway aircraft wheelchair scooter drone" speed="15.76" length="22.18" width="7.00" shape="905.29,26.38 908.81,23.13 914.12,19.90 919.81,17.25 924.47,15.76"/>
    </edge>
    <edge id=":1881927757_7" function="internal">
        <lane id=":1881927757_7_0" index="0" disallow="tram rail_urban rail rail_electric rail_fast ship container cable_car subway aircraft wheelchair scooter drone" speed="8.33" length="15.87" width="3.75" shape="905.29,26.38 907.70,24.31 910.84,23.92 914.71,25.19 919.31,28.14"/>
        <lane id=":1881927757_7_1" index="1" disallow="tram rail_urban rail rail_electric rail_fast ship container cable_car subway aircraft wheelchair scooter drone" speed="7.70" length="13.42" width="3.75" shape="905.29,26.38 906.75,25.65 909.19,26.20 912.62,28.02 917.03,31.12"/>
    </edge>
    <edge id=":1881927757_9" function="internal">
        <lane id=":1881927757_9_0" index="0" disallow="tram rail_urban rail rail_electric rail_fast ship container cable_car subway aircraft wheelchair scooter drone" speed="3.65" length="4.67" shape="905.29,26.38 906.63,25.86 907.52,26.00 907.94,26.78 907.90,28.23"/>
    </edge>
    <edge id=":1881928008_0" function="internal">
        <lane id=":1881928008_0_0" index="0" disallow="tram rail_urban rail rail_electric rail_fast ship container cable_car subway aircraft wheelchair scooter drone" speed="17.34" length="19.26" width="3.75" shape="905.16,51.58 903.87,47.94 901.99,44.16 898.97,40.23 894.26,36.17"/>
    </edge>
    <edge id=":1881928008_1" function="internal">
        <lane id=":1881928008_1_0" index="0" disallow="tram rail_urban rail rail_electric rail_fast ship container cable_car subway aircraft wheelchair scooter drone" speed="14.85" length="25.87" shape="905.16,51.58 903.03,43.63 902.33,36.81 903.04,31.11 905.17,26.54"/>
    </edge>
    <edge id=":1881928008_2" function="internal">
        <lane id=":1881928008_2_0" index="0" disallow="tram rail_urban rail rail_electric rail_fast ship container cable_car subway aircraft wheelchair scooter drone" speed="27.78" length="21.11" width="3.75" shape="910.84,48.91 894.26,36.17"/>
        <lane id=":1881928008_2_1" index="1" disallow="tram rail_urban rail rail_electric rail_fast ship container cable_car subway aircraft wheelchair scooter drone" speed="27.78" length="21.11" width="3.75" shape="913.14,45.95 896.44,33.13"/>
        <lane id=":1881928008_2_2" index="2" disallow="tram rail_urban rail rail_electric rail_fast ship container cable_car subway aircraft wheelchair scooter drone" speed="27.78" length="21.11" width="3.75" shape="915.43,42.98 898.63,30.08"/>
        <lane id=":1881928008_2_3" index="3" disallow="tram rail_urban rail rail_electric rail_fast ship container cable_car subway aircraft wheelchair scooter drone" speed="27.78" length="21.11" width="3.75" shape="917.72,40.01 900.81,27.03"/>
    </edge>
    <edge id=":1881928008_6" function="internal">
        <lane id=":1881928008_6_0" index="0" disallow="tram rail_urban rail rail_electric rail_fast ship container cable_car subway aircraft wheelchair scooter drone" speed="9.33" length="18.90" shape="917.72,40.01 911.58,35.03 907.44,31.13 905.30,28.30 905.17,26.54"/>
    </edge>
    <edge id=":1881928008_7" function="internal">
        <lane id=":1881928008_7_0" index="0" disallow="tram rail_urban rail rail_electric rail_fast ship container cable_car subway aircraft wheelchair scooter drone" speed="6.09" length="7.80" width="3.75" shape="907.78,28.39 906.70,29.21 905.18,29.26 903.22,28.53 900.81,27.03"/>
    </edge>
    <edge id=":1881928008_8" function="internal">
        <lane id=":1881928008_8_0" index="0" disallow="tram rail_urban rail rail_electric rail_fast ship container cable_car subway aircraft wheelchair scooter drone" speed="3.65" length="4.67" shape="907.78,28.39 906.43,28.91 905.55,28.77 905.13,27.98 905.17,26.54"/>
    </edge>
    <edge id=":1919751043_0" function="internal">
        <lane id=":1919751043_0_0" index="0" disallow="tram rail_urban rail rail_electric rail_fast ship container cable_car subway aircraft wheelchair scooter drone" speed="3.65" length="4.67" shape="694.82,478.35 694.19,477.06 694.25,476.16 695.00,475.67 696.44,475.59"/>
    </edge>
    <edge id=":1919751060_0" function="internal">
        <lane id=":1919751060_0_0" index="0" disallow="tram rail_urban rail rail_electric rail_fast ship container cable_car subway aircraft wheelchair scooter drone" speed="3.65" length="4.67" shape="711.03,484.09 711.66,485.38 711.60,486.28 710.85,486.77 709.41,486.85"/>
    </edge>
    <edge id=":cluster10203920310_1881928279_0" function="internal">
        <lane id=":cluster10203920310_1881928279_0_0" index="0" disallow="tram rail_urban rail rail_electric rail_fast ship container cable_car subway aircraft wheelchair scooter drone" speed="15.65" length="17.70" width="7.00" shape="986.98,108.26 982.32,105.06 978.20,103.34 974.41,102.64 970.69,102.46"/>
    </edge>
    <edge id=":cluster10203920310_1881928279_1" function="internal">
        <lane id=":cluster10203920310_1881928279_1_0" index="0" disallow="tram rail_urban rail rail_electric rail_fast ship container cable_car subway aircraft wheelchair scooter drone" speed="27.78" length="18.93" width="3.75" shape="986.98,108.26 972.26,96.32"/>
        <lane id=":cluster10203920310_1881928279_1_1" index="1" disallow="tram rail_urban rail rail_electric rail_fast ship container cable_car subway aircraft wheelchair scooter drone" speed="27.78" length="18.93" width="3.75" shape="989.35,105.35 974.65,93.42"/>
        <lane id=":cluster10203920310_1881928279_1_2" index="2" disallow="tram rail_urban rail rail_electric rail_fast ship container cable_car subway aircraft wheelchair scooter drone" speed="27.78" length="18.93" width="3.75" shape="991.73,102.45 977.03,90.53"/>
        <lane id=":cluster10203920310_1881928279_1_3" index="3" disallow="tram rail_urban rail rail_electric rail_fast ship container cable_car subway aircraft wheelchair scooter drone" speed="27.78" length="18.93" width="3.75" shape="994.10,99.54 979.41,87.63"/>
    </edge>
    <edge id=":cluster10203920310_1881928279_5" function="internal">
        <lane id=":cluster10203920310_1881928279_5_0" index="0" disallow="tram rail_urban rail rail_electric rail_fast ship container cable_car subway aircraft wheelchair scooter drone" speed="9.00" length="16.22" shape="994.10,99.54 988.89,95.13 985.33,91.73 983.41,89.34 983.12,87.97"/>
        <lane id=":cluster10203920310_1881928279_5_1" index="1" disallow="tram rail_urban rail rail_electric rail_fast ship container cable_car subway aircraft wheelchair scooter drone" speed="8.20" length="13.29" shape="994.10,99.54 990.00,96.00 987.26,93.17 985.87,91.05 985.85,89.65"/>
    </edge>
    <edge id=":cluster10203920324_1881928007_0" function="internal">
        <lane id=":cluster10203920324_1881928007_0_0" index="0" disallow="tram rail_urban rail rail_electric rail_fast ship container cable_car subway aircraft wheelchair scooter drone" speed="18.04" length="23.43" width="7.50" shape="906.87,106.19 910.34,99.19 912.38,93.18 913.20,88.12 913.06,83.98"/>
    </edge>
    <edge id=":cluster10203920324_1881928007_1" function="internal">
        <lane id=":cluster10203920324_1881928007_1_0" index="0" disallow="tram rail_urban rail rail_electric rail_fast ship container cable_car subway aircraft wheelchair scooter drone" speed="27.78" length="24.93" shape="906.87,106.19 919.13,84.47"/>
        <lane id=":cluster10203920324_1881928007_1_1" index="1" disallow="tram rail_urban rail rail_electric rail_fast ship container cable_car subway aircraft wheelchair scooter drone" speed="27.78" length="24.93" shape="909.65,107.77 921.91,86.06"/>
        <lane id=":cluster10203920324_1881928007_1_2" index="2" disallow="tram rail_urban rail rail_electric rail_fast ship container cable_car subway aircraft wheelchair scooter drone" speed="27.78" length="24.93" shape="912.43,109.35 924.69,87.65"/>
    </edge>
    <edge id=":cluster10203920324_1881928007_4" function="internal">
        <lane id=":cluster10203920324_1881928007_4_0" index="0" disallow="tram rail_urban rail rail_electric rail_fast ship container cable_car subway aircraft wheelchair scooter drone" speed="6.09" length="7.73" shape="912.43,109.35 913.96,107.06 915.43,105.63 916.84,105.07 918.21,105.37"/>
        <lane id=":cluster10203920324_1881928007_4_1" index="1" disallow="tram rail_urban rail rail_electric rail_fast ship container cable_car subway aircraft wheelchair scooter drone" speed="5.05" length="4.99" shape="912.43,109.35 913.27,108.28 914.25,107.72 915.38,107.68 916.65,108.17"/>
    </edge>
    <edge id=":cluster10203920325_5718886024_0" function="internal">
        <lane id=":cluster10203920325_5718886024_0_0" index="0" disallow="tram rail_urban rail rail_electric rail_fast ship container cable_car subway aircraft wheelchair scooter drone" speed="13.23" length="13.85" shape="935.48,108.29 932.26,109.40 929.54,110.69 927.09,112.76 924.68,116.23"/>
    </edge>
    <edge id=":cluster10203920325_5718886024_1" function="internal">
        <lane id=":cluster10203920325_5718886024_1_0" index="0" disallow="tram rail_urban rail rail_electric rail_fast ship container cable_car subway aircraft wheelchair scooter drone" speed="27.78" length="14.65" shape="931.91,103.50 924.68,116.23"/>
        <lane id=":cluster10203920325_5718886024_1_1" index="1" disallow="tram rail_urban rail rail_electric rail_fast ship container cable_car subway aircraft wheelchair scooter drone" speed="27.78" length="14.65" shape="929.13,101.92 921.89,114.66"/>
        <lane id=":cluster10203920325_5718886024_1_2" index="2" disallow="tram rail_urban rail rail_electric rail_fast ship container cable_car subway aircraft wheelchair scooter drone" speed="27.78" length="14.65" shape="926.34,100.34 919.11,113.09"/>
    </edge>
    <edge id=":cluster10203920325_5718886024_4" function="internal">
        <lane id=":cluster10203920325_5718886024_4_0" index="0" disallow="tram rail_urban rail rail_electric rail_fast ship container cable_car subway aircraft wheelchair scooter drone" speed="6.86" length="10.19" shape="919.47,106.08 921.70,107.76 922.84,109.76 922.91,112.06 921.89,114.66"/>
        <lane id=":cluster10203920325_5718886024_4_1" index="1" disallow="tram rail_urban rail rail_electric rail_fast ship container cable_car subway aircraft wheelchair scooter drone" speed="5.03" length="5.01" shape="917.91,108.87 919.01,109.70 919.57,110.68 919.60,111.81 919.11,113.09"/>
    </edge>
    <edge id=":cluster10203920328_1881927759_0" function="internal">
        <lane id=":cluster10203920328_1881927759_0_0" index="0" disallow="tram rail_urban rail rail_electric rail_fast ship container cable_car subway aircraft wheelchair scooter drone" speed="7.04" length="10.07" shape="973.02,10.88 971.37,9.26 970.68,7.22 970.94,4.76 972.16,1.88"/>
        <lane id=":cluster10203920328_1881927759_0_1" index="1" disallow="tram rail_urban rail rail_electric rail_fast ship container cable_car subway aircraft wheelchair scooter drone" speed="5.29" length="5.26" shape="974.79,8.22 974.13,7.47 973.93,6.42 974.21,5.07 974.97,3.42"/>
    </edge>
    <edge id=":cluster10203920328_1881927759_2" function="internal">
        <lane id=":cluster10203920328_1881927759_2_0" index="0" disallow="tram rail_urban rail rail_electric rail_fast ship container cable_car subway aircraft wheelchair scooter drone" speed="12.03" length="17.02" shape="956.41,10.36 960.20,9.39 963.62,7.40 966.67,4.38 969.35,0.34"/>
    </edge>
    <edge id=":cluster10203920328_1881927759_3" function="internal">
        <lane id=":cluster10203920328_1881927759_3_0" index="0" disallow="tram rail_urban rail rail_electric rail_fast ship container cable_car subway aircraft wheelchair scooter drone" speed="15.28" length="19.06" shape="959.12,16.20 969.35,0.34"/>
        <lane id=":cluster10203920328_1881927759_3_1" index="1" disallow="tram rail_urban rail rail_electric rail_fast ship container cable_car subway aircraft wheelchair scooter drone" speed="15.28" length="19.06" shape="961.84,17.90 972.16,1.88"/>
        <lane id=":cluster10203920328_1881927759_3_2" index="2" disallow="tram rail_urban rail rail_electric rail_fast ship container cable_car subway aircraft wheelchair scooter drone" speed="15.28" length="19.06" shape="964.55,19.59 974.97,3.42"/>
    </edge>
    <edge id=":cluster10203920329_1881928278_0" function="internal">
        <lane id=":cluster10203920329_1881928278_0_0" index="0" disallow="tram rail_urban rail rail_electric rail_fast ship container cable_car subway aircraft wheelchair scooter drone" speed="18.05" length="23.95" width="6.40" shape="986.95,9.02 983.50,16.20 981.72,22.41 981.06,27.64 980.96,31.89"/>
    </edge>
    <edge id=":cluster10203920329_1881928278_1" function="internal">
        <lane id=":cluster10203920329_1881928278_1_0" index="0" disallow="tram rail_urban rail rail_electric rail_fast ship container cable_car subway aircraft wheelchair scooter drone" speed="15.28" length="24.46" shape="986.95,9.02 974.35,30.02"/>
        <lane id=":cluster10203920329_1881928278_1_1" index="1" disallow="tram rail_urban rail rail_electric rail_fast ship container cable_car subway aircraft wheelchair scooter drone" speed="15.28" length="24.46" shape="984.19,7.41 971.60,28.38"/>
        <lane id=":cluster10203920329_1881928278_1_2" index="2" disallow="tram rail_urban rail rail_electric rail_fast ship container cable_car subway aircraft wheelchair scooter drone" speed="15.28" length="24.46" shape="981.43,5.79 968.85,26.74"/>
    </edge>
    <edge id=":cluster10203920329_1881928278_4" function="internal">
        <lane id=":cluster10203920329_1881928278_4_0" index="0" disallow="tram rail_urban rail rail_electric rail_fast ship container cable_car subway aircraft wheelchair scooter drone" speed="6.94" length="10.88" shape="981.43,5.79 979.23,9.00 977.12,10.94 975.11,11.60 973.19,11.00"/>
        <lane id=":cluster10203920329_1881928278_4_1" index="1" disallow="tram rail_urban rail rail_electric rail_fast ship container cable_car subway aircraft wheelchair scooter drone" speed="6.04" length="7.98" shape="981.43,5.79 979.95,7.80 978.37,8.89 976.71,9.06 974.96,8.33"/>
    </edge>
    <edge id=":cluster10225394963_6672692461_J10_J11_#2more_0" function="internal">
        <lane id=":cluster10225394963_6672692461_J10_J11_#2more_0_0" index="0" disallow="tram rail_urban rail rail_electric rail_fast ship container cable_car subway aircraft wheelchair scooter drone" speed="11.03" length="31.90" shape="881.06,237.76 872.49,232.39 865.17,230.86 859.09,233.16 854.26,239.30"/>
    </edge>
    <edge id=":cluster10225394963_6672692461_J10_J11_#2more_1" function="internal">
        <lane id=":cluster10225394963_6672692461_J10_J11_#2more_1_0" index="0" disallow="tram rail_urban rail rail_electric rail_fast ship container cable_car subway aircraft wheelchair scooter drone" speed="13.89" length="55.11" width="3.32" shape="881.06,237.76 835.86,206.24"/>
    </edge>
    <edge id=":cluster10225394963_6672692461_J10_J11_#2more_2" function="internal">
        <lane id=":cluster10225394963_6672692461_J10_J11_#2more_2_0" index="0" disallow="tram rail_urban rail rail_electric rail_fast ship container cable_car subway aircraft wheelchair scooter drone" speed="15.22" length="47.45" shape="881.06,237.76 868.95,226.71 861.59,216.50 858.98,207.15 861.12,198.65"/>
    </edge>
    <edge id=":cluster10225394963_6672692461_J10_J11_#2more_3" function="internal">
        <lane id=":cluster10225394963_6672692461_J10_J11_#2more_3_0" index="0" disallow="tram rail_urban rail rail_electric rail_fast ship container cable_car subway aircraft wheelchair scooter drone" speed="12.78" length="34.35" width="3.32" shape="873.58,205.61 870.78,213.01 871.43,220.40 875.55,227.78 883.12,235.16"/>
    </edge>
    <edge id=":cluster10225394963_6672692461_J10_J11_#2more_4" function="internal">
        <lane id=":cluster10225394963_6672692461_J10_J11_#2more_4_0" index="0" disallow="tram rail_urban rail rail_electric rail_fast ship container cable_car subway aircraft wheelchair scooter drone" speed="27.78" length="38.93" shape="873.58,205.61 854.26,239.30"/>
        <lane id=":cluster10225394963_6672692461_J10_J11_#2more_4_1" index="1" disallow="tram rail_urban rail rail_electric rail_fast ship container cable_car subway aircraft wheelchair scooter drone" speed="27.78" length="38.93" shape="870.78,204.05 851.42,237.82"/>
        <lane id=":cluster10225394963_6672692461_J10_J11_#2more_4_2" index="2" disallow="tram rail_urban rail rail_electric rail_fast ship container cable_car subway aircraft wheelchair scooter drone" speed="27.78" length="38.93" shape="867.99,202.49 848.58,236.34"/>
    </edge>
    <edge id=":cluster10225394963_6672692461_J10_J11_#2more_7" function="internal">
        <lane id=":cluster10225394963_6672692461_J10_J11_#2more_7_0" index="0" disallow="tram rail_urban rail rail_electric rail_fast ship container cable_car subway aircraft wheelchair scooter drone" speed="12.51" length="16.70" width="3.32" shape="867.99,202.49 861.03,211.05 855.83,213.28"/>
    </edge>
    <edge id=":cluster10225394963_6672692461_J10_J11_#2more_16" function="internal">
        <lane id=":cluster10225394963_6672692461_J10_J11_#2more_16_0" index="0" disallow="tram rail_urban rail rail_electric rail_fast ship container cable_car subway aircraft wheelchair scooter drone" speed="12.51" length="22.09" width="3.32" shape="855.83,213.28 853.80,214.15 845.63,212.35 835.86,206.24"/>
    </edge>
    <edge id=":cluster10225394963_6672692461_J10_J11_#2more_8" function="internal">
        <lane id=":cluster10225394963_6672692461_J10_J11_#2more_8_0" index="0" disallow="tram rail_urban rail rail_electric rail_fast ship container cable_car subway aircraft wheelchair scooter drone" speed="9.52" length="22.56" shape="837.84,203.58 842.44,205.68 846.92,205.04 851.29,201.66 855.54,195.53"/>
    </edge>
    <edge id=":cluster10225394963_6672692461_J10_J11_#2more_9" function="internal">
        <lane id=":cluster10225394963_6672692461_J10_J11_#2more_9_0" index="0" disallow="tram rail_urban rail rail_electric rail_fast ship container cable_car subway aircraft wheelchair scooter drone" speed="13.89" length="55.20" width="3.32" shape="837.84,203.58 883.12,235.16"/>
    </edge>
    <edge id=":cluster10225394963_6672692461_J10_J11_#2more_10" function="internal">
        <lane id=":cluster10225394963_6672692461_J10_J11_#2more_10_0" index="0" disallow="tram rail_urban rail rail_electric rail_fast ship container cable_car subway aircraft wheelchair scooter drone" speed="13.65" length="37.98" shape="837.84,203.58 846.03,211.24 850.55,219.25 851.40,227.62 848.58,236.34"/>
    </edge>
    <edge id=":cluster10225394963_6672692461_J10_J11_#2more_11" function="internal">
        <lane id=":cluster10225394963_6672692461_J10_J11_#2more_11_0" index="0" disallow="tram rail_urban rail rail_electric rail_fast ship container cable_car subway aircraft wheelchair scooter drone" speed="11.13" length="26.03" width="3.32" shape="836.14,229.84 839.70,222.27 840.84,215.81 839.56,210.47 835.86,206.24"/>
    </edge>
    <edge id=":cluster10225394963_6672692461_J10_J11_#2more_12" function="internal">
        <lane id=":cluster10225394963_6672692461_J10_J11_#2more_12_0" index="0" disallow="tram rail_urban rail rail_electric rail_fast ship container cable_car subway aircraft wheelchair scooter drone" speed="27.78" length="39.32" shape="836.14,229.84 855.54,195.53"/>
        <lane id=":cluster10225394963_6672692461_J10_J11_#2more_12_1" index="1" disallow="tram rail_urban rail rail_electric rail_fast ship container cable_car subway aircraft wheelchair scooter drone" speed="27.78" length="39.32" shape="838.98,231.32 858.33,197.09"/>
        <lane id=":cluster10225394963_6672692461_J10_J11_#2more_12_2" index="2" disallow="tram rail_urban rail rail_electric rail_fast ship container cable_car subway aircraft wheelchair scooter drone" speed="27.78" length="39.32" shape="841.82,232.80 861.12,198.65"/>
    </edge>
    <edge id=":cluster10225394963_6672692461_J10_J11_#2more_15" function="internal">
        <lane id=":cluster10225394963_6672692461_J10_J11_#2more_15_0" index="0" disallow="tram rail_urban rail rail_electric rail_fast ship container cable_car subway aircraft wheelchair scooter drone" speed="13.79" length="15.14" width="3.32" shape="841.82,232.80 850.02,223.88 852.99,223.34"/>
    </edge>
    <edge id=":cluster10225394963_6672692461_J10_J11_#2more_17" function="internal">
        <lane id=":cluster10225394963_6672692461_J10_J11_#2more_17_0" index="0" disallow="tram rail_urban rail rail_electric rail_fast ship container cable_car subway aircraft wheelchair scooter drone" speed="13.79" length="33.79" width="3.32" shape="852.99,223.34 859.52,222.15 870.50,226.34 883.12,235.16"/>
    </edge>
    <edge id=":cluster10225395076_6629490569_J0_J3_#2more_0" function="internal">
        <lane id=":cluster10225395076_6629490569_J0_J3_#2more_0_0" index="0" disallow="tram rail_urban rail rail_electric rail_fast ship container cable_car subway aircraft wheelchair scooter drone" speed="10.76" length="26.66" shape="781.49,408.44 772.83,404.22 765.96,402.54 760.86,403.43 757.54,406.87"/>
    </edge>
    <edge id=":cluster10225395076_6629490569_J0_J3_#2more_1" function="internal">
        <lane id=":cluster10225395076_6629490569_J0_J3_#2more_1_0" index="0" disallow="tram rail_urban rail rail_electric rail_fast ship container cable_car subway aircraft wheelchair scooter drone" speed="13.89" length="54.53" width="5.53" shape="781.49,408.44 734.38,380.98"/>
    </edge>
    <edge id=":cluster10225395076_6629490569_J0_J3_#2more_2" function="internal">
        <lane id=":cluster10225395076_6629490569_J0_J3_#2more_2_0" index="0" disallow="tram rail_urban rail rail_electric rail_fast ship container cable_car subway aircraft wheelchair scooter drone" speed="14.17" length="18.49" shape="781.49,408.44 768.13,399.33 766.57,397.61"/>
    </edge>
    <edge id=":cluster10225395076_6629490569_J0_J3_#2more_16" function="internal">
        <lane id=":cluster10225395076_6629490569_J0_J3_#2more_16_0" index="0" disallow="tram rail_urban rail rail_electric rail_fast ship container cable_car subway aircraft wheelchair scooter drone" speed="14.17" length="27.77" shape="766.57,397.61 760.01,390.41 757.11,381.69 759.44,373.17"/>
    </edge>
    <edge id=":cluster10225395076_6629490569_J0_J3_#2more_3" function="internal">