<?xml version='1.0' encoding='utf-8'?>
<routes xmlns:xsi="http://www.w3.org/2001/XMLSchema-instance" xsi:noNamespaceSchemaLocation="http://sumo.dlr.de/xsd/routes_file.xsd">
  <trip id="4" depart="0.00" from="721131963#1" to="1149579536#4" type="td_0" departLane="best" departSpeed="max" departPos="random" />
  <trip id="3" depart="0.00" from="1119166765#1" to="-31905181#3" type="td_0" departLane="best" departSpeed="max" departPos="random" />
  <trip id="2" depart="0.00" from="152227691#6" to="1307054560#4" type="td_0" departLane="best" departSpeed="max" departPos="random" />
  <trip id="9" depart="4.00" from="-1117528626#1" to="1119166765#12" type="td_0" departLane="best" departSpeed="max" departPos="random" />
  <trip id="10" depart="4.00" from="152227691#6" to="721131937#8" type="td_0" departLane="best" departSpeed="max" departPos="random" />
  <trip id="13" depart="5.00" from="850475200" to="-723990057#2" type="td_0" departLane="best" departSpeed="max" departPos="random" />
  <trip id="12" depart="5.00" from="-722464597#1" to="721131954#2" type="td_0" departLane="best" departSpeed="max" departPos="random" />
  <trip id="17" depart="6.00" from="155775198#0" to="1307054560#0" type="td_0" departLane="best" departSpeed="max" departPos="random" />
  <trip id="21" depart="8.00" from="155315695#4" to="721131946#5" type="td_0" departLane="best" departSpeed="max" departPos="random" />
  <trip id="23" depart="9.00" from="-852629939" to="721131954#2" type="td_0" departLane="best" departSpeed="max" departPos="random" />
  <trip id="24" depart="9.00" from="721131946#14" to="1307054560#1" type="td_0" departLane="best" departSpeed="max" departPos="random" />
  <trip id="26" depart="11.00" from="-442885101#0" to="-155315682" type="td_0" departLane="best" departSpeed="max" departPos="random" />
  <trip id="28" depart="11.00" from="-442885101#0" to="152227691#6" type="td_0" departLane="best" departSpeed="max" departPos="random" />
  <trip id="29" depart="12.00" from="721126897#7" to="1149579537#1" type="td_0" departLane="best" departSpeed="max" departPos="random" />
  <trip id="33" depart="13.00" from="152227691#5" to="721131958#1" type="td_0" departLane="best" departSpeed="max" departPos="random" />
  <trip id="34" depart="14.00" from="850817945" to="152227691#0" type="td_0" departLane="best" departSpeed="max" departPos="random" />
  <trip id="36" depart="15.00" from="-155315719#0" to="152227691#0" type="td_0" departLane="best" departSpeed="max" departPos="random" />
  <trip id="39" depart="16.00" from="-852595092" to="851342124" type="td_0" departLane="best" departSpeed="max" departPos="random" />
  <trip id="38" depart="16.00" from="721131934#1" to="721131954#2" type="td_0" departLane="best" departSpeed="max" departPos="random" />
  <trip id="43" depart="18.00" from="1149580108" to="1149580308" type="td_0" departLane="best" departSpeed="max" departPos="random" />
  <trip id="42" depart="18.00" from="-850817945" to="722464597#2" type="td_0" departLane="best" departSpeed="max" departPos="random" />
  <trip id="45" depart="19.00" from="-155315695#3" to="721126897#14" type="td_0" departLane="best" departSpeed="max" departPos="random" />
  <trip id="48" depart="20.00" from="721131937#10" to="271412010" type="td_0" departLane="best" departSpeed="max" departPos="random" />
  <trip id="50" depart="21.00" from="-31905195#2" to="-155775198#6" type="td_0" departLane="best" departSpeed="max" departPos="random" />
  <trip id="53" depart="22.00" from="442885101#0" to="721131934#5" type="td_0" departLane="best" departSpeed="max" departPos="random" />
  <trip id="52" depart="22.00" from="1149580107#4" to="721131963#3" type="td_0" departLane="best" departSpeed="max" departPos="random" />
  <trip id="54" depart="22.00" from="721131960#4" to="721131937#6" type="td_0" departLane="best" departSpeed="max" departPos="random" />
  <trip id="55" depart="23.00" from="-1149576119" to="721126897#14" type="td_0" departLane="best" departSpeed="max" departPos="random" />
  <trip id="58" depart="26.00" from="-723990057#5" to="-721131943" type="td_0" departLane="best" departSpeed="max" departPos="random" />
  <trip id="62" depart="27.00" from="721131954#0" to="721126897#14" type="td_0" departLane="best" departSpeed="max" departPos="random" />
  <trip id="64" depart="28.00" from="-1307054560#3" to="-723990054" type="td_0" departLane="best" departSpeed="max" departPos="random" />
  <trip id="66" depart="28.00" from="-155315719#2" to="155315678#0" type="td_0" departLane="best" departSpeed="max" departPos="random" />
  <trip id="63" depart="28.00" from="724005155#6" to="1149580107#3" type="td_0" departLane="best" departSpeed="max" departPos="random" />
  <trip id="76" depart="34.00" from="-442885101#0" to="721131937#6" type="td_0" departLane="best" departSpeed="max" departPos="random" />
  <trip id="75" depart="34.00" from="721131960#4" to="1149580308" type="td_0" departLane="best" departSpeed="max" departPos="random" />
  <trip id="74" depart="34.00" from="722466951" to="-724005155#8" type="td_0" departLane="best" departSpeed="max" departPos="random" />
  <trip id="77" depart="34.00" from="1149579536#7" to="152227691#4" type="td_0" departLane="best" departSpeed="max" departPos="random" />
  <trip id="79" depart="36.00" from="152227691#2" to="-722466950" type="td_0" departLane="best" departSpeed="max" departPos="random" />
  <trip id="83" depart="37.00" from="163652291" to="152227691#6" type="td_0" departLane="best" departSpeed="max" departPos="random" />
  <trip id="86" depart="37.00" from="721131960#1" to="721131932" type="td_0" departLane="best" departSpeed="max" departPos="random" />
  <trip id="93" depart="39.00" from="-722464595" to="592032565" type="td_0" departLane="best" departSpeed="max" departPos="random" />
  <trip id="94" depart="40.00" from="852595092" to="721126897#7" type="td_0" departLane="best" departSpeed="max" departPos="random" />
  <trip id="97" depart="41.00" from="-850817946" to="152227691#13" type="td_0" departLane="best" departSpeed="max" departPos="random" />
  <trip id="100" depart="43.00" from="218100268" to="-100954129#1" type="td_0" departLane="best" departSpeed="max" departPos="random" />
  <trip id="101" depart="43.00" from="1307054560#1" to="721126897#12" type="td_0" departLane="best" departSpeed="max" departPos="random" />
  <trip id="103" depart="44.00" from="723990057#3" to="-100954129#0" type="td_0" departLane="best" departSpeed="max" departPos="random" />
  <trip id="109" depart="47.00" from="721131938" to="857958820#1" type="td_0" departLane="best" departSpeed="max" departPos="random" />
  <trip id="112" depart="49.00" from="-442885101#0" to="-721131941" type="td_0" departLane="best" departSpeed="max" departPos="random" />
  <trip id="115" depart="51.00" from="152227691#1" to="721131946#11" type="td_0" departLane="best" departSpeed="max" departPos="random" />
  <trip id="114" depart="51.00" from="-31905195#1" to="-850817949" type="td_0" departLane="best" departSpeed="max" departPos="random" />
  <trip id="120" depart="53.00" from="724005155#10" to="850475200" type="td_0" departLane="best" departSpeed="max" departPos="random" />
  <trip id="121" depart="53.00" from="-482169086#8" to="-1149578943" type="td_0" departLane="best" departSpeed="max" departPos="random" />
  <trip id="125" depart="55.00" from="1149579537#0" to="-155315678#4" type="td_0" departLane="best" departSpeed="max" departPos="random" />
  <trip id="126" depart="55.00" from="-155315695#3" to="-724005155#4" type="td_0" departLane="best" departSpeed="max" departPos="random" />
  <trip id="129" depart="56.00" from="721126897#7" to="-1117528627#1" type="td_0" departLane="best" departSpeed="max" departPos="random" />
  <trip id="128" depart="56.00" from="1149581388" to="591704635#3" type="td_0" departLane="best" departSpeed="max" departPos="random" />
  <trip id="133" depart="57.00" from="721131960#1" to="271412010" type="td_0" departLane="best" departSpeed="max" departPos="random" />
  <trip id="132" depart="57.00" from="-155315680#1" to="152227691#4" type="td_0" departLane="best" departSpeed="max" departPos="random" />
  <trip id="134" depart="58.00" from="-850817946" to="1149579537#4" type="td_0" departLane="best" departSpeed="max" departPos="random" />
  <trip id="136" depart="59.00" from="-721131962" to="-724005155#5" type="td_0" departLane="best" departSpeed="max" departPos="random" />
  <trip id="137" depart="59.00" from="155315694#3" to="-155315695#0" type="td_0" departLane="best" departSpeed="max" departPos="random" />
  <trip id="141" depart="60.00" from="721131934#0" to="-723990057#4" type="td_0" departLane="best" departSpeed="max" departPos="random" />
  <trip id="140" depart="60.00" from="934254484#2" to="-724005155#8" type="td_0" departLane="best" departSpeed="max" departPos="random" />
  <trip id="149" depart="66.00" from="1149579536#1" to="-155315695#0" type="td_0" departLane="best" departSpeed="max" departPos="random" />
  <trip id="153" depart="69.00" from="721131946#2" to="724005155#9" type="td_0" departLane="best" departSpeed="max" departPos="random" />
  <trip id="155" depart="71.00" from="-722464597#1" to="721131937#12" type="td_0" departLane="best" departSpeed="max" departPos="random" />
  <trip id="159" depart="73.00" from="721131934#0" to="1149580107#3" type="td_0" departLane="best" departSpeed="max" departPos="random" />
  <trip id="158" depart="73.00" from="721131937#12" to="1149579536#0" type="td_0" departLane="best" departSpeed="max" departPos="random" />
  <trip id="160" depart="74.00" from="31905181#1" to="1149579537#6" type="td_0" departLane="best" departSpeed="max" departPos="random" />
  <trip id="166" depart="76.00" from="721126897#4" to="-31905214" type="td_0" departLane="best" departSpeed="max" departPos="random" />
  <trip id="169" depart="76.00" from="-31905201#2" to="721131937#6" type="td_0" departLane="best" departSpeed="max" departPos="random" />
  <trip id="170" depart="77.00" from="350539817#0" to="31905181#4" type="td_0" departLane="best" departSpeed="max" departPos="random" />
  <trip id="172" depart="78.00" from="-723990057#4" to="1270367191#2" type="td_0" departLane="best" departSpeed="max" departPos="random" />
  <trip id="174" depart="78.00" from="1149579536#1" to="-31905190#0" type="td_0" departLane="best" departSpeed="max" departPos="random" />
  <trip id="179" depart="80.00" from="-442885101#1" to="1119166765#6" type="td_0" departLane="best" departSpeed="max" departPos="random" />
  <trip id="178" depart="80.00" from="152227697#4" to="152227691#2" type="td_0" departLane="best" departSpeed="max" departPos="random" />
  <trip id="186" depart="83.00" from="1117528627#0" to="721131960#1" type="td_0" departLane="best" departSpeed="max" departPos="random" />
  <trip id="185" depart="83.00" from="721131946#9" to="-100954163#9" type="td_0" departLane="best" departSpeed="max" departPos="random" />
  <trip id="189" depart="85.00" from="850817945" to="1117528626#0" type="td_0" departLane="best" departSpeed="max" departPos="random" />
  <trip id="188" depart="85.00" from="-724005155#0" to="721131966#0" type="td_0" departLane="best" departSpeed="max" departPos="random" />
  <trip id="193" depart="87.00" from="722464591#3" to="1149579537#4" type="td_0" departLane="best" departSpeed="max" departPos="random" />
  <trip id="198" depart="91.00" from="721126897#5" to="1149579536#1" type="td_0" departLane="best" departSpeed="max" departPos="random" />
  <trip id="200" depart="92.00" from="721131946#6" to="827332719" type="td_0" departLane="best" departSpeed="max" departPos="random" />
  <trip id="201" depart="92.00" from="723990057#6" to="-442885101#0" type="td_0" departLane="best" departSpeed="max" departPos="random" />
  <trip id="203" depart="93.00" from="-155775198#6" to="721131966#0" type="td_0" departLane="best" departSpeed="max" departPos="random" />
  <trip id="204" depart="95.00" from="1307054560#0" to="721126897#12" type="td_0" departLane="best" departSpeed="max" departPos="random" />
  <trip id="205" depart="95.00" from="721131966#0" to="721131960#5" type="td_0" departLane="best" departSpeed="max" departPos="random" />
  <trip id="210" depart="97.00" from="-1056899464#1" to="-31905195#1" type="td_0" departLane="best" departSpeed="max" departPos="random" />
  <trip id="211" depart="98.00" from="1149579537#2" to="857958820#0" type="td_0" departLane="best" departSpeed="max" departPos="random" />
  <trip id="212" depart="98.00" from="721131937#0" to="-722466951" type="td_0" departLane="best" departSpeed="max" departPos="random" />
  <trip id="217" depart="100.00" from="-722464595" to="152227691#1" type="td_0" departLane="best" departSpeed="max" departPos="random" />
  <trip id="220" depart="100.00" from="-1149578944" to="-155775200#1" type="td_0" departLane="best" departSpeed="max" departPos="random" />
  <trip id="215" depart="100.00" from="155315694#3" to="721131961" type="td_0" departLane="best" departSpeed="max" departPos="random" />
  <trip id="218" depart="100.00" from="708790255#0" to="934254484#1" type="td_0" departLane="best" departSpeed="max" departPos="random" />
  <trip id="219" depart="100.00" from="-155315688#0" to="592032565" type="td_0" departLane="best" departSpeed="max" departPos="random" />
  <trip id="222" depart="101.00" from="1149579536#4" to="-723990054" type="td_0" departLane="best" departSpeed="max" departPos="random" />
  <trip id="226" depart="102.00" from="-442885359#0" to="-1135316108" type="td_0" departLane="best" departSpeed="max" departPos="random" />
  <trip id="230" depart="104.00" from="406038877" to="724005155#6" type="td_0" departLane="best" departSpeed="max" departPos="random" />
  <trip id="232" depart="104.00" from="152227697#1" to="721131934#6" type="td_0" departLane="best" departSpeed="max" departPos="random" />
  <trip id="235" depart="108.00" from="-155775198#4" to="721131937#12" type="td_0" departLane="best" departSpeed="max" departPos="random" />
  <trip id="236" depart="108.00" from="1149579537#2" to="31905181#4" type="td_0" departLane="best" departSpeed="max" departPos="random" />
  <trip id="237" depart="109.00" from="850699983#1" to="723990054" type="td_0" departLane="best" departSpeed="max" departPos="random" />
  <trip id="239" depart="109.00" from="-1307054560#3" to="-723990057#5" type="td_0" departLane="best" departSpeed="max" departPos="random" />
  <trip id="242" depart="111.00" from="350424623#0" to="721131946#8" type="td_0" departLane="best" departSpeed="max" departPos="random" />
  <trip id="244" depart="112.00" from="1149579537#6" to="721126897#7" type="td_0" departLane="best" departSpeed="max" departPos="random" />
  <trip id="243" depart="112.00" from="-721131967" to="850475200" type="td_0" departLane="best" departSpeed="max" departPos="random" />
  <trip id="251" depart="115.00" from="-934254484#0" to="-724005155#3" type="td_0" departLane="best" departSpeed="max" departPos="random" />
  <trip id="248" depart="115.00" from="721131946#9" to="31905195#2" type="td_0" departLane="best" departSpeed="max" departPos="random" />
  <trip id="254" depart="117.00" from="721131934#3" to="155315711" type="td_0" departLane="best" departSpeed="max" departPos="random" />
  <trip id="255" depart="118.00" from="-851342124" to="721131954#2" type="td_0" departLane="best" departSpeed="max" departPos="random" />
  <trip id="260" depart="119.00" from="152227686#3" to="1149578943" type="td_0" departLane="best" departSpeed="max" departPos="random" />
  <trip id="257" depart="119.00" from="721131946#15" to="-100954129#0" type="td_0" departLane="best" departSpeed="max" departPos="random" />
  <trip id="258" depart="119.00" from="155315694#0" to="724005155#4" type="td_0" departLane="best" departSpeed="max" departPos="random" />
  <trip id="259" depart="119.00" from="721131932" to="1149579537#0" type="td_0" departLane="best" departSpeed="max" departPos="random" />
  <trip id="262" depart="120.00" from="-155315680#1" to="-722466951" type="td_0" departLane="best" departSpeed="max" departPos="random" />
  <trip id="263" depart="121.00" from="-850760537#1" to="850699983#1" type="td_0" departLane="best" departSpeed="max" departPos="random" />
  <trip id="267" depart="122.00" from="100954163#8" to="-406038877" type="td_0" departLane="best" departSpeed="max" departPos="random" />
  <trip id="265" depart="122.00" from="721131946#6" to="721131934#5" type="td_0" departLane="best" departSpeed="max" departPos="random" />
  <trip id="268" depart="124.00" from="852595092" to="152227697#4" type="td_0" departLane="best" departSpeed="max" departPos="random" />
  <trip id="269" depart="124.00" from="-723990057#3" to="721131963#0" type="td_0" departLane="best" departSpeed="max" departPos="random" />
  <trip id="273" depart="126.00" from="1149582046#0" to="-724005155#4" type="td_0" departLane="best" departSpeed="max" departPos="random" />
  <trip id="275" depart="127.00" from="1270367191#0" to="-723990056" type="td_0" departLane="best" departSpeed="max" departPos="random" />
  <trip id="277" depart="128.00" from="1307054560#1" to="1149580108" type="td_0" departLane="best" departSpeed="max" departPos="random" />
  <trip id="280" depart="130.00" from="724005155#10" to="721131954#2" type="td_0" departLane="best" departSpeed="max" departPos="random" />
  <trip id="285" depart="132.00" from="-723990057#4" to="721131933#1" type="td_0" departLane="best" departSpeed="max" departPos="random" />
  <trip id="290" depart="134.00" from="724005155#5" to="-723990057#2" type="td_0" departLane="best" departSpeed="max" departPos="random" />
  <trip id="294" depart="136.00" from="31905181#0" to="721131946#14" type="td_0" departLane="best" departSpeed="max" departPos="random" />
  <trip id="295" depart="137.00" from="-721131938" to="851342124" type="td_0" departLane="best" departSpeed="max" departPos="random" />
  <trip id="297" depart="137.00" from="-852595092" to="721131937#13" type="td_0" departLane="best" departSpeed="max" departPos="random" />
  <trip id="300" depart="138.00" from="721131937#12" to="722466948" type="td_0" departLane="best" departSpeed="max" departPos="random" />
  <trip id="299" depart="138.00" from="1149579536#2" to="722464592" type="td_0" departLane="best" departSpeed="max" departPos="random" />
  <trip id="301" depart="138.00" from="721126897#13" to="-1056899464#1" type="td_0" departLane="best" departSpeed="max" departPos="random" />
  <trip id="302" depart="140.00" from="-1307054560#1" to="721131953" type="td_0" departLane="best" departSpeed="max" departPos="random" />
  <trip id="303" depart="141.00" from="1149579536#0" to="31905181#1" type="td_0" departLane="best" departSpeed="max" departPos="random" />
  <trip id="304" depart="141.00" from="721131954#0" to="1149580107#1" type="td_0" departLane="best" departSpeed="max" departPos="random" />
  <trip id="305" depart="141.00" from="350424622#2" to="827332718" type="td_0" departLane="best" departSpeed="max" departPos="random" />
  <trip id="306" depart="142.00" from="-1149578943" to="721126897#12" type="td_0" departLane="best" departSpeed="max" departPos="random" />
  <trip id="308" depart="143.00" from="-723990055#4" to="155315680#0" type="td_0" departLane="best" departSpeed="max" departPos="random" />
  <trip id="309" depart="148.00" from="723990057#7" to="155775198#0" type="td_0" departLane="best" departSpeed="max" departPos="random" />
  <trip id="313" depart="150.00" from="721131960#4" to="1149578943" type="td_0" departLane="best" departSpeed="max" departPos="random" />
  <trip id="317" depart="151.00" from="721131960#4" to="-723990057#2" type="td_0" departLane="best" departSpeed="max" departPos="random" />
  <trip id="318" depart="151.00" from="721126897#7" to="-155315711" type="td_0" departLane="best" departSpeed="max" departPos="random" />
  <trip id="320" depart="152.00" from="1149582046#0" to="350424622#2" type="td_0" departLane="best" departSpeed="max" departPos="random" />
  <trip id="319" depart="152.00" from="-100954129#5" to="-442885101#1" type="td_0" departLane="best" departSpeed="max" departPos="random" />
  <trip id="322" depart="153.00" from="722464591#3" to="-100954129#1" type="td_0" departLane="best" departSpeed="max" departPos="random" />
  <trip id="323" depart="153.00" from="722464591#3" to="-721131938" type="td_0" departLane="best" departSpeed="max" departPos="random" />
  <trip id="325" depart="155.00" from="-766326319" to="-723990055#4" type="td_0" departLane="best" departSpeed="max" departPos="random" />
  <trip id="326" depart="155.00" from="934254484#2" to="442885355#2" type="td_0" departLane="best" departSpeed="max" departPos="random" />
  <trip id="329" depart="156.00" from="721131946#6" to="934254484#0" type="td_0" departLane="best" departSpeed="max" departPos="random" />
  <trip id="336" depart="160.00" from="721131946#6" to="722464593#1" type="td_0" departLane="best" departSpeed="max" departPos="random" />
  <trip id="337" depart="161.00" from="-100954163#9" to="-721131953" type="td_0" departLane="best" departSpeed="max" departPos="random" />
  <trip id="338" depart="162.00" from="723990055#4" to="152227691#7" type="td_0" departLane="best" departSpeed="max" departPos="random" />
  <trip id="342" depart="164.00" from="152227686#3" to="-851342126" type="td_0" departLane="best" departSpeed="max" departPos="random" />
  <trip id="343" depart="165.00" from="724005155#10" to="1119166765#12" type="td_0" departLane="best" departSpeed="max" departPos="random" />
  <trip id="344" depart="165.00" from="1119166764#0" to="721131942" type="td_0" departLane="best" departSpeed="max" departPos="random" />
  <trip id="345" depart="166.00" from="1149579537#2" to="-721131962" type="td_0" departLane="best" departSpeed="max" departPos="random" />
  <trip id="346" depart="167.00" from="721131954#2" to="-1149580110" type="td_0" departLane="best" departSpeed="max" departPos="random" />
  <trip id="348" depart="167.00" from="721131937#8" to="155775198#6" type="td_0" departLane="best" departSpeed="max" departPos="random" />
  <trip id="347" depart="167.00" from="218100268" to="721131937#5" type="td_0" departLane="best" departSpeed="max" departPos="random" />
  <trip id="355" depart="171.00" from="152227691#1" to="1307054560#3" type="td_0" departLane="best" departSpeed="max" departPos="random" />
  <trip id="356" depart="171.00" from="155315693#0" to="1119166765#3" type="td_0" departLane="best" departSpeed="max" departPos="random" />
  <trip id="357" depart="173.00" from="152227691#12" to="721131954#0" type="td_0" departLane="best" departSpeed="max" departPos="random" />
  <trip id="358" depart="173.00" from="-155315695#4" to="721131966#0" type="td_0" departLane="best" departSpeed="max" departPos="random" />
  <trip id="361" depart="175.00" from="721131937#13" to="-722464597#1" type="td_0" departLane="best" departSpeed="max" departPos="random" />
  <trip id="362" depart="175.00" from="152227691#9" to="1149579536#1" type="td_0" departLane="best" departSpeed="max" departPos="random" />
  <trip id="363" depart="176.00" from="-723990057#6" to="100954129#4" type="td_0" departLane="best" departSpeed="max" departPos="random" />
  <trip id="366" depart="176.00" from="31905190#1" to="100954129#5" type="td_0" departLane="best" departSpeed="max" departPos="random" />
  <trip id="365" depart="176.00" from="155315682" to="350424622#2" type="td_0" departLane="best" departSpeed="max" departPos="random" />
  <trip id="370" depart="179.00" from="31905181#0" to="857958820#1" type="td_0" departLane="best" departSpeed="max" departPos="random" />
  <trip id="371" depart="181.00" from="-442885101#2" to="-723990057#6" type="td_0" departLane="best" departSpeed="max" departPos="random" />
  <trip id="372" depart="182.00" from="-152227686#1" to="721131946#6" type="td_0" departLane="best" departSpeed="max" departPos="random" />
  <trip id="373" depart="182.00" from="721131960#5" to="721131963#3" type="td_0" departLane="best" departSpeed="max" departPos="random" />
  <trip id="375" depart="183.00" from="-722464598" to="152227686#1" type="td_0" departLane="best" departSpeed="max" departPos="random" />
  <trip id="374" depart="183.00" from="-442885101#0" to="721131960#1" type="td_0" departLane="best" departSpeed="max" departPos="random" />
  <trip id="378" depart="184.00" from="591704635#0" to="723990056" type="td_0" departLane="best" departSpeed="max" departPos="random" />
  <trip id="376" depart="184.00" from="152227697#4" to="-1149580109" type="td_0" departLane="best" departSpeed="max" departPos="random" />
  <trip id="381" depart="186.00" from="721131934#6" to="1149579535" type="td_0" departLane="best" departSpeed="max" departPos="random" />
  <trip id="382" depart="186.00" from="721131934#4" to="721131954#2" type="td_0" departLane="best" departSpeed="max" departPos="random" />
  <trip id="385" depart="188.00" from="-31905195#2" to="1149579536#4" type="td_0" departLane="best" departSpeed="max" departPos="random" />
  <trip id="384" depart="188.00" from="-152227697#3" to="-442885359#0" type="td_0" departLane="best" departSpeed="max" departPos="random" />
  <trip id="391" depart="190.00" from="-31905214" to="721131937#10" type="td_0" departLane="best" departSpeed="max" departPos="random" />
  <trip id="390" depart="190.00" from="442885355#1" to="766326334" type="td_0" departLane="best" departSpeed="max" departPos="random" />
  <trip id="389" depart="190.00" from="-155315678#5" to="708790255#0" type="td_0" departLane="best" departSpeed="max" departPos="random" />
  <trip id="397" depart="192.00" from="100954245#0" to="721126897#12" type="td_0" departLane="best" departSpeed="max" departPos="random" />
  <trip id="398" depart="193.00" from="155775198#5" to="152227691#10" type="td_0" departLane="best" departSpeed="max" departPos="random" />
  <trip id="401" depart="194.00" from="155775198#0" to="723990059" type="td_0" departLane="best" departSpeed="max" departPos="random" />
  <trip id="407" depart="196.00" from="721131937#8" to="152227686#3" type="td_0" departLane="best" departSpeed="max" departPos="random" />
  <trip id="410" depart="199.00" from="721131963#3" to="442885101#2" type="td_0" departLane="best" departSpeed="max" departPos="random" />
  <trip id="411" depart="200.00" from="1135316109" to="155315719#1" type="td_0" departLane="best" departSpeed="max" departPos="random" />
  <trip id="414" depart="201.00" from="721131934#4" to="723990057#3" type="td_0" departLane="best" departSpeed="max" departPos="random" />
  <trip id="415" depart="202.00" from="442885101#2" to="721131958#1" type="td_0" departLane="best" departSpeed="max" departPos="random" />
  <trip id="416" depart="203.00" from="1149581388" to="-152227697#3" type="td_0" departLane="best" departSpeed="max" departPos="random" />
  <trip id="420" depart="204.00" from="721131954#0" to="721131963#3" type="td_0" departLane="best" departSpeed="max" departPos="random" />
  <trip id="419" depart="204.00" from="-100954129#0" to="591704635#0" type="td_0" departLane="best" departSpeed="max" departPos="random" />
  <trip id="421" depart="205.00" from="100954129#2" to="-1117528626#1" type="td_0" departLane="best" departSpeed="max" departPos="random" />
  <trip id="422" depart="206.00" from="850699983#1" to="-155315719#8" type="td_0" departLane="best" departSpeed="max" departPos="random" />
  <trip id="426" depart="209.00" from="-1270367191#2" to="721131960#4" type="td_0" departLane="best" departSpeed="max" departPos="random" />
  <trip id="428" depart="209.00" from="857958820#1" to="-163652291" type="td_0" departLane="best" departSpeed="max" departPos="random" />
  <trip id="427" depart="209.00" from="724005155#10" to="1149579537#1" type="td_0" departLane="best" departSpeed="max" departPos="random" />
  <trip id="429" depart="210.00" from="-721131953" to="721131937#8" type="td_0" departLane="best" departSpeed="max" departPos="random" />
  <trip id="430" depart="211.00" from="721131937#12" to="-724005155#8" type="td_0" departLane="best" departSpeed="max" departPos="random" />
  <trip id="436" depart="212.00" from="-1149579535" to="721131958#1" type="td_0" departLane="best" departSpeed="max" departPos="random" />
  <trip id="439" depart="213.00" from="722464597#0" to="721126897#7" type="td_0" departLane="best" departSpeed="max" departPos="random" />
  <trip id="443" depart="215.00" from="-1149579535" to="721131942" type="td_0" departLane="best" departSpeed="max" departPos="random" />
  <trip id="444" depart="215.00" from="100954129#4" to="-31905195#2" type="td_0" departLane="best" departSpeed="max" departPos="random" />
  <trip id="446" depart="216.00" from="721131962" to="721131940" type="td_0" departLane="best" departSpeed="max" departPos="random" />
  <trip id="448" depart="217.00" from="-100954163#9" to="155315695#2" type="td_0" departLane="best" departSpeed="max" departPos="random" />
  <trip id="453" depart="221.00" from="721131946#14" to="724005155#1" type="td_0" departLane="best" departSpeed="max" departPos="random" />
  <trip id="455" depart="222.00" from="-100954245#13" to="1307054560#4" type="td_0" departLane="best" departSpeed="max" departPos="random" />
  <trip id="458" depart="223.00" from="152227697#3" to="-152227697#3" type="td_0" departLane="best" departSpeed="max" departPos="random" />
  <trip id="459" depart="223.00" from="721131963#3" to="-721131933#1" type="td_0" departLane="best" departSpeed="max" departPos="random" />
  <trip id="460" depart="224.00" from="721126897#12" to="-934254484#1" type="td_0" departLane="best" departSpeed="max" departPos="random" />
  <trip id="462" depart="225.00" from="442885101#1" to="218100268" type="td_0" departLane="best" departSpeed="max" departPos="random" />
  <trip id="465" depart="226.00" from="724005155#1" to="721131946#8" type="td_0" departLane="best" departSpeed="max" departPos="random" />
  <trip id="463" depart="226.00" from="721131946#9" to="1119166765#3" type="td_0" departLane="best" departSpeed="max" departPos="random" />